data_image0
_chemical_formula_structural       Ca4Ti4O12Ca4Ti4O12Ca4Ti4O12Ca4Ti4O12Ca4Ti4O12Ca4Ti4O12Ca4Ti4O12Ca4Ti4O12Ca4Ti4O12Ca4Ti4O12Ca4Ti4O12Ca4Ti4O12Ca4Ti4O12Ca4Ti4O12Ca4Ti4O12Ca4Ti4O12Ca4Ti4O12Ca4Ti4O12Ca4Ti4O12Ca4Ti4O12Ca4Ti4O12Ca4Ti4O12Ca4Ti4O12Ca4Ti4O12Ca4Ti4O12Ca4Ti4O12Ca4Ti4O12Ca4Ti4O12Ca4Ti4O12Ca4Ti4O12Ca4Ti4O12Ca4Ti4O12Ca4Ti4O12Ca4Ti4O12Ca4Ti4O12Ca4Ti4O12
_chemical_formula_sum              "Ca144 Ti144 O432"
_cell_length_a       51.7392
_cell_length_b       53.3191
_cell_length_c       24.4135
_cell_angle_alpha    90
_cell_angle_beta     90
_cell_angle_gamma    141.156

_space_group_name_H-M_alt    "P 1"
_space_group_IT_number       1

loop_
  _space_group_symop_operation_xyz
  'x, y, z'

loop_
  _atom_site_type_symbol
  _atom_site_label
  _atom_site_symmetry_multiplicity
  _atom_site_fract_x
  _atom_site_fract_y
  _atom_site_fract_z
  _atom_site_occupancy
  Ca  Ca1       1.0  0.12201  0.07430  0.44077  1.0000
  Ca  Ca2       1.0  0.12762  0.19641  0.43191  1.0000
  Ca  Ca3       1.0  0.28719  0.07317  0.43730  1.0000
  Ca  Ca4       1.0  0.29577  0.19754  0.43537  1.0000
  Ti  Ti1       1.0  0.29148  0.13536  0.43634  1.0000
  Ti  Ti2       1.0  0.29148  0.01036  0.43634  1.0000
  Ti  Ti3       1.0  0.12481  0.13536  0.43634  1.0000
  Ti  Ti4       1.0  0.12481  0.01036  0.43634  1.0000
  O   O1        1.0  0.00788  0.06688  0.41798  1.0000
  O   O2        1.0  0.24175  0.20383  0.45469  1.0000
  O   O3        1.0  0.07821  0.07805  0.45232  1.0000
  O   O4        1.0  0.17142  0.19266  0.42036  1.0000
  O   O5        1.0  0.25672  0.01170  0.40961  1.0000
  O   O6        1.0  0.00635  0.15076  0.45284  1.0000
  O   O7        1.0  0.32624  0.00901  0.46306  1.0000
  O   O8        1.0  0.24327  0.11995  0.41984  1.0000
  O   O9        1.0  0.20824  0.01705  0.42605  1.0000
  O   O10       1.0  0.05483  0.14542  0.43640  1.0000
  O   O11       1.0  0.04139  0.00366  0.44662  1.0000
  O   O12       1.0  0.19480  0.12530  0.43628  1.0000
  Ca  Ca5       1.0  0.03830  0.09501  0.50443  1.0000
  Ca  Ca6       1.0  0.04391  0.21713  0.49557  1.0000
  Ca  Ca7       1.0  0.20348  0.09388  0.50097  1.0000
  Ca  Ca8       1.0  0.21207  0.21825  0.49903  1.0000
  Ti  Ti5       1.0  0.20777  0.15607  0.50000  1.0000
  Ti  Ti6       1.0  0.20777  0.03107  0.50000  1.0000
  Ti  Ti7       1.0  0.04111  0.15607  0.50000  1.0000
  Ti  Ti8       1.0  0.04111  0.03107  0.50000  1.0000
  O   O13       1.0  0.25750  0.08760  0.48164  1.0000
  O   O14       1.0  0.15805  0.22454  0.51836  1.0000
  O   O15       1.0  0.32784  0.09877  0.51598  1.0000
  O   O16       1.0  0.08771  0.21337  0.48402  1.0000
  O   O17       1.0  0.17301  0.03241  0.47327  1.0000
  O   O18       1.0  0.25598  0.17148  0.51650  1.0000
  O   O19       1.0  0.24254  0.02972  0.52673  1.0000
  O   O20       1.0  0.15957  0.14066  0.48350  1.0000
  O   O21       1.0  0.12454  0.03776  0.48971  1.0000
  O   O22       1.0  0.30446  0.16613  0.50006  1.0000
  O   O23       1.0  0.29101  0.02438  0.51029  1.0000
  O   O24       1.0  0.11109  0.14601  0.49994  1.0000
  Ca  Ca9       1.0  0.28793  0.11572  0.56809  1.0000
  Ca  Ca10      1.0  0.29354  0.23784  0.55923  1.0000
  Ca  Ca11      1.0  0.11977  0.11460  0.56463  1.0000
  Ca  Ca12      1.0  0.12836  0.23897  0.56270  1.0000
  Ti  Ti9       1.0  0.12407  0.17678  0.56366  1.0000
  Ti  Ti10      1.0  0.12407  0.05178  0.56366  1.0000
  Ti  Ti11      1.0  0.29074  0.17678  0.56366  1.0000
  Ti  Ti12      1.0  0.29074  0.05178  0.56366  1.0000
  O   O25       1.0  0.17380  0.10831  0.54531  1.0000
  O   O26       1.0  0.07434  0.24525  0.58202  1.0000
  O   O27       1.0  0.24413  0.11948  0.57964  1.0000
  O   O28       1.0  0.00400  0.23408  0.54768  1.0000
  O   O29       1.0  0.08931  0.05313  0.53694  1.0000
  O   O30       1.0  0.17228  0.19219  0.58016  1.0000
  O   O31       1.0  0.15883  0.05044  0.59039  1.0000
  O   O32       1.0  0.07586  0.16137  0.54716  1.0000
  O   O33       1.0  0.04083  0.05847  0.55338  1.0000
  O   O34       1.0  0.22075  0.18684  0.56372  1.0000
  O   O35       1.0  0.20731  0.04509  0.57395  1.0000
  O   O36       1.0  0.02738  0.16672  0.56360  1.0000
  Ca  Ca13      1.0  0.12201  0.32430  0.44077  1.0000
  Ca  Ca14      1.0  0.12762  0.44641  0.43191  1.0000
  Ca  Ca15      1.0  0.28719  0.32317  0.43730  1.0000
  Ca  Ca16      1.0  0.29577  0.44754  0.43537  1.0000
  Ti  Ti13      1.0  0.29148  0.38536  0.43634  1.0000
  Ti  Ti14      1.0  0.29148  0.26036  0.43634  1.0000
  Ti  Ti15      1.0  0.12481  0.38536  0.43634  1.0000
  Ti  Ti16      1.0  0.12481  0.26036  0.43634  1.0000
  O   O37       1.0  0.00788  0.31688  0.41798  1.0000
  O   O38       1.0  0.24175  0.45383  0.45469  1.0000
  O   O39       1.0  0.07821  0.32805  0.45232  1.0000
  O   O40       1.0  0.17142  0.44266  0.42036  1.0000
  O   O41       1.0  0.25672  0.26170  0.40961  1.0000
  O   O42       1.0  0.00635  0.40076  0.45284  1.0000
  O   O43       1.0  0.32624  0.25901  0.46306  1.0000
  O   O44       1.0  0.24327  0.36995  0.41984  1.0000
  O   O45       1.0  0.20824  0.26705  0.42605  1.0000
  O   O46       1.0  0.05483  0.39542  0.43640  1.0000
  O   O47       1.0  0.04139  0.25366  0.44662  1.0000
  O   O48       1.0  0.19480  0.37530  0.43628  1.0000
  Ca  Ca17      1.0  0.03830  0.34501  0.50443  1.0000
  Ca  Ca18      1.0  0.04391  0.46713  0.49557  1.0000
  Ca  Ca19      1.0  0.20348  0.34388  0.50097  1.0000
  Ca  Ca20      1.0  0.21207  0.46825  0.49903  1.0000
  Ti  Ti17      1.0  0.20777  0.40607  0.50000  1.0000
  Ti  Ti18      1.0  0.20777  0.28107  0.50000  1.0000
  Ti  Ti19      1.0  0.04111  0.40607  0.50000  1.0000
  Ti  Ti20      1.0  0.04111  0.28107  0.50000  1.0000
  O   O49       1.0  0.25750  0.33760  0.48164  1.0000
  O   O50       1.0  0.15805  0.47454  0.51836  1.0000
  O   O51       1.0  0.32784  0.34877  0.51598  1.0000
  O   O52       1.0  0.08771  0.46337  0.48402  1.0000
  O   O53       1.0  0.17301  0.28241  0.47327  1.0000
  O   O54       1.0  0.25598  0.42148  0.51650  1.0000
  O   O55       1.0  0.24254  0.27972  0.52673  1.0000
  O   O56       1.0  0.15957  0.39066  0.48350  1.0000
  O   O57       1.0  0.12454  0.28776  0.48971  1.0000
  O   O58       1.0  0.30446  0.41613  0.50006  1.0000
  O   O59       1.0  0.29101  0.27438  0.51029  1.0000
  O   O60       1.0  0.11109  0.39601  0.49994  1.0000
  Ca  Ca21      1.0  0.28793  0.36572  0.56809  1.0000
  Ca  Ca22      1.0  0.29354  0.48784  0.55923  1.0000
  Ca  Ca23      1.0  0.11977  0.36460  0.56463  1.0000
  Ca  Ca24      1.0  0.12836  0.48897  0.56270  1.0000
  Ti  Ti21      1.0  0.12407  0.42678  0.56366  1.0000
  Ti  Ti22      1.0  0.12407  0.30178  0.56366  1.0000
  Ti  Ti23      1.0  0.29074  0.42678  0.56366  1.0000
  Ti  Ti24      1.0  0.29074  0.30178  0.56366  1.0000
  O   O61       1.0  0.17380  0.35831  0.54531  1.0000
  O   O62       1.0  0.07434  0.49525  0.58202  1.0000
  O   O63       1.0  0.24413  0.36948  0.57964  1.0000
  O   O64       1.0  0.00400  0.48408  0.54768  1.0000
  O   O65       1.0  0.08931  0.30313  0.53694  1.0000
  O   O66       1.0  0.17228  0.44219  0.58016  1.0000
  O   O67       1.0  0.15883  0.30044  0.59039  1.0000
  O   O68       1.0  0.07586  0.41137  0.54716  1.0000
  O   O69       1.0  0.04083  0.30847  0.55338  1.0000
  O   O70       1.0  0.22075  0.43684  0.56372  1.0000
  O   O71       1.0  0.20731  0.29509  0.57395  1.0000
  O   O72       1.0  0.02738  0.41672  0.56360  1.0000
  Ca  Ca25      1.0  0.12201  0.57430  0.44077  1.0000
  Ca  Ca26      1.0  0.12762  0.69641  0.43191  1.0000
  Ca  Ca27      1.0  0.28719  0.57317  0.43730  1.0000
  Ca  Ca28      1.0  0.29577  0.69754  0.43537  1.0000
  Ti  Ti25      1.0  0.29148  0.63536  0.43634  1.0000
  Ti  Ti26      1.0  0.29148  0.51036  0.43634  1.0000
  Ti  Ti27      1.0  0.12481  0.63536  0.43634  1.0000
  Ti  Ti28      1.0  0.12481  0.51036  0.43634  1.0000
  O   O73       1.0  0.00788  0.56688  0.41798  1.0000
  O   O74       1.0  0.24175  0.70383  0.45469  1.0000
  O   O75       1.0  0.07821  0.57805  0.45232  1.0000
  O   O76       1.0  0.17142  0.69266  0.42036  1.0000
  O   O77       1.0  0.25672  0.51170  0.40961  1.0000
  O   O78       1.0  0.00635  0.65076  0.45284  1.0000
  O   O79       1.0  0.32624  0.50901  0.46306  1.0000
  O   O80       1.0  0.24327  0.61995  0.41984  1.0000
  O   O81       1.0  0.20824  0.51705  0.42605  1.0000
  O   O82       1.0  0.05483  0.64542  0.43640  1.0000
  O   O83       1.0  0.04139  0.50366  0.44662  1.0000
  O   O84       1.0  0.19480  0.62530  0.43628  1.0000
  Ca  Ca29      1.0  0.03830  0.59501  0.50443  1.0000
  Ca  Ca30      1.0  0.04391  0.71713  0.49557  1.0000
  Ca  Ca31      1.0  0.20348  0.59388  0.50097  1.0000
  Ca  Ca32      1.0  0.21207  0.71825  0.49903  1.0000
  Ti  Ti29      1.0  0.20777  0.65607  0.50000  1.0000
  Ti  Ti30      1.0  0.20777  0.53107  0.50000  1.0000
  Ti  Ti31      1.0  0.04111  0.65607  0.50000  1.0000
  Ti  Ti32      1.0  0.04111  0.53107  0.50000  1.0000
  O   O85       1.0  0.25750  0.58760  0.48164  1.0000
  O   O86       1.0  0.15805  0.72454  0.51836  1.0000
  O   O87       1.0  0.32784  0.59877  0.51598  1.0000
  O   O88       1.0  0.08771  0.71337  0.48402  1.0000
  O   O89       1.0  0.17301  0.53241  0.47327  1.0000
  O   O90       1.0  0.25598  0.67148  0.51650  1.0000
  O   O91       1.0  0.24254  0.52972  0.52673  1.0000
  O   O92       1.0  0.15957  0.64066  0.48350  1.0000
  O   O93       1.0  0.12454  0.53776  0.48971  1.0000
  O   O94       1.0  0.30446  0.66613  0.50006  1.0000
  O   O95       1.0  0.29101  0.52438  0.51029  1.0000
  O   O96       1.0  0.11109  0.64601  0.49994  1.0000
  Ca  Ca33      1.0  0.28793  0.61572  0.56809  1.0000
  Ca  Ca34      1.0  0.29354  0.73784  0.55923  1.0000
  Ca  Ca35      1.0  0.11977  0.61460  0.56463  1.0000
  Ca  Ca36      1.0  0.12836  0.73897  0.56270  1.0000
  Ti  Ti33      1.0  0.12407  0.67678  0.56366  1.0000
  Ti  Ti34      1.0  0.12407  0.55178  0.56366  1.0000
  Ti  Ti35      1.0  0.29074  0.67678  0.56366  1.0000
  Ti  Ti36      1.0  0.29074  0.55178  0.56366  1.0000
  O   O97       1.0  0.17380  0.60831  0.54531  1.0000
  O   O98       1.0  0.07434  0.74525  0.58202  1.0000
  O   O99       1.0  0.24413  0.61948  0.57964  1.0000
  O   O100      1.0  0.00400  0.73408  0.54768  1.0000
  O   O101      1.0  0.08931  0.55313  0.53694  1.0000
  O   O102      1.0  0.17228  0.69219  0.58016  1.0000
  O   O103      1.0  0.15883  0.55044  0.59039  1.0000
  O   O104      1.0  0.07586  0.66137  0.54716  1.0000
  O   O105      1.0  0.04083  0.55847  0.55338  1.0000
  O   O106      1.0  0.22075  0.68684  0.56372  1.0000
  O   O107      1.0  0.20731  0.54509  0.57395  1.0000
  O   O108      1.0  0.02738  0.66672  0.56360  1.0000
  Ca  Ca37      1.0  0.12201  0.82430  0.44077  1.0000
  Ca  Ca38      1.0  0.12762  0.94641  0.43191  1.0000
  Ca  Ca39      1.0  0.28719  0.82317  0.43730  1.0000
  Ca  Ca40      1.0  0.29577  0.94754  0.43537  1.0000
  Ti  Ti37      1.0  0.29148  0.88536  0.43634  1.0000
  Ti  Ti38      1.0  0.29148  0.76036  0.43634  1.0000
  Ti  Ti39      1.0  0.12481  0.88536  0.43634  1.0000
  Ti  Ti40      1.0  0.12481  0.76036  0.43634  1.0000
  O   O109      1.0  0.00788  0.81688  0.41798  1.0000
  O   O110      1.0  0.24175  0.95383  0.45469  1.0000
  O   O111      1.0  0.07821  0.82805  0.45232  1.0000
  O   O112      1.0  0.17142  0.94266  0.42036  1.0000
  O   O113      1.0  0.25672  0.76170  0.40961  1.0000
  O   O114      1.0  0.00635  0.90076  0.45284  1.0000
  O   O115      1.0  0.32624  0.75901  0.46306  1.0000
  O   O116      1.0  0.24327  0.86995  0.41984  1.0000
  O   O117      1.0  0.20824  0.76705  0.42605  1.0000
  O   O118      1.0  0.05483  0.89542  0.43640  1.0000
  O   O119      1.0  0.04139  0.75366  0.44662  1.0000
  O   O120      1.0  0.19480  0.87530  0.43628  1.0000
  Ca  Ca41      1.0  0.03830  0.84501  0.50443  1.0000
  Ca  Ca42      1.0  0.04391  0.96713  0.49557  1.0000
  Ca  Ca43      1.0  0.20348  0.84388  0.50097  1.0000
  Ca  Ca44      1.0  0.21207  0.96825  0.49903  1.0000
  Ti  Ti41      1.0  0.20777  0.90607  0.50000  1.0000
  Ti  Ti42      1.0  0.20777  0.78107  0.50000  1.0000
  Ti  Ti43      1.0  0.04111  0.90607  0.50000  1.0000
  Ti  Ti44      1.0  0.04111  0.78107  0.50000  1.0000
  O   O121      1.0  0.25750  0.83760  0.48164  1.0000
  O   O122      1.0  0.15805  0.97454  0.51836  1.0000
  O   O123      1.0  0.32784  0.84877  0.51598  1.0000
  O   O124      1.0  0.08771  0.96337  0.48402  1.0000
  O   O125      1.0  0.17301  0.78241  0.47327  1.0000
  O   O126      1.0  0.25598  0.92148  0.51650  1.0000
  O   O127      1.0  0.24254  0.77972  0.52673  1.0000
  O   O128      1.0  0.15957  0.89066  0.48350  1.0000
  O   O129      1.0  0.12454  0.78776  0.48971  1.0000
  O   O130      1.0  0.30446  0.91613  0.50006  1.0000
  O   O131      1.0  0.29101  0.77438  0.51029  1.0000
  O   O132      1.0  0.11109  0.89601  0.49994  1.0000
  Ca  Ca45      1.0  0.28793  0.86572  0.56809  1.0000
  Ca  Ca46      1.0  0.29354  0.98784  0.55923  1.0000
  Ca  Ca47      1.0  0.11977  0.86460  0.56463  1.0000
  Ca  Ca48      1.0  0.12836  0.98897  0.56270  1.0000
  Ti  Ti45      1.0  0.12407  0.92678  0.56366  1.0000
  Ti  Ti46      1.0  0.12407  0.80178  0.56366  1.0000
  Ti  Ti47      1.0  0.29074  0.92678  0.56366  1.0000
  Ti  Ti48      1.0  0.29074  0.80178  0.56366  1.0000
  O   O133      1.0  0.17380  0.85831  0.54531  1.0000
  O   O134      1.0  0.07434  0.99525  0.58202  1.0000
  O   O135      1.0  0.24413  0.86948  0.57964  1.0000
  O   O136      1.0  0.00400  0.98408  0.54768  1.0000
  O   O137      1.0  0.08931  0.80313  0.53694  1.0000
  O   O138      1.0  0.17228  0.94219  0.58016  1.0000
  O   O139      1.0  0.15883  0.80044  0.59039  1.0000
  O   O140      1.0  0.07586  0.91137  0.54716  1.0000
  O   O141      1.0  0.04083  0.80847  0.55338  1.0000
  O   O142      1.0  0.22075  0.93684  0.56372  1.0000
  O   O143      1.0  0.20731  0.79509  0.57395  1.0000
  O   O144      1.0  0.02738  0.91672  0.56360  1.0000
  Ca  Ca49      1.0  0.45534  0.07430  0.44077  1.0000
  Ca  Ca50      1.0  0.46095  0.19641  0.43191  1.0000
  Ca  Ca51      1.0  0.62052  0.07317  0.43730  1.0000
  Ca  Ca52      1.0  0.62911  0.19754  0.43537  1.0000
  Ti  Ti49      1.0  0.62481  0.13536  0.43634  1.0000
  Ti  Ti50      1.0  0.62481  0.01036  0.43634  1.0000
  Ti  Ti51      1.0  0.45815  0.13536  0.43634  1.0000
  Ti  Ti52      1.0  0.45815  0.01036  0.43634  1.0000
  O   O145      1.0  0.34121  0.06688  0.41798  1.0000
  O   O146      1.0  0.57509  0.20383  0.45469  1.0000
  O   O147      1.0  0.41154  0.07805  0.45232  1.0000
  O   O148      1.0  0.50475  0.19266  0.42036  1.0000
  O   O149      1.0  0.59005  0.01170  0.40961  1.0000
  O   O150      1.0  0.33969  0.15076  0.45284  1.0000
  O   O151      1.0  0.65957  0.00901  0.46306  1.0000
  O   O152      1.0  0.57661  0.11995  0.41984  1.0000
  O   O153      1.0  0.54157  0.01705  0.42605  1.0000
  O   O154      1.0  0.38817  0.14542  0.43640  1.0000
  O   O155      1.0  0.37472  0.00366  0.44662  1.0000
  O   O156      1.0  0.52813  0.12530  0.43628  1.0000
  Ca  Ca53      1.0  0.37164  0.09501  0.50443  1.0000
  Ca  Ca54      1.0  0.37724  0.21713  0.49557  1.0000
  Ca  Ca55      1.0  0.53681  0.09388  0.50097  1.0000
  Ca  Ca56      1.0  0.54540  0.21825  0.49903  1.0000
  Ti  Ti53      1.0  0.54111  0.15607  0.50000  1.0000
  Ti  Ti54      1.0  0.54111  0.03107  0.50000  1.0000
  Ti  Ti55      1.0  0.37444  0.15607  0.50000  1.0000
  Ti  Ti56      1.0  0.37444  0.03107  0.50000  1.0000
  O   O157      1.0  0.59084  0.08760  0.48164  1.0000
  O   O158      1.0  0.49138  0.22454  0.51836  1.0000
  O   O159      1.0  0.66117  0.09877  0.51598  1.0000
  O   O160      1.0  0.42104  0.21337  0.48402  1.0000
  O   O161      1.0  0.50635  0.03241  0.47327  1.0000
  O   O162      1.0  0.58931  0.17148  0.51650  1.0000
  O   O163      1.0  0.57587  0.02972  0.52673  1.0000
  O   O164      1.0  0.49290  0.14066  0.48350  1.0000
  O   O165      1.0  0.45787  0.03776  0.48971  1.0000
  O   O166      1.0  0.63779  0.16613  0.50006  1.0000
  O   O167      1.0  0.62435  0.02438  0.51029  1.0000
  O   O168      1.0  0.44442  0.14601  0.49994  1.0000
  Ca  Ca57      1.0  0.62127  0.11572  0.56809  1.0000
  Ca  Ca58      1.0  0.62687  0.23784  0.55923  1.0000
  Ca  Ca59      1.0  0.45311  0.11460  0.56463  1.0000
  Ca  Ca60      1.0  0.46170  0.23897  0.56270  1.0000
  Ti  Ti57      1.0  0.45740  0.17678  0.56366  1.0000
  Ti  Ti58      1.0  0.45740  0.05178  0.56366  1.0000
  Ti  Ti59      1.0  0.62407  0.17678  0.56366  1.0000
  Ti  Ti60      1.0  0.62407  0.05178  0.56366  1.0000
  O   O169      1.0  0.50713  0.10831  0.54531  1.0000
  O   O170      1.0  0.40767  0.24525  0.58202  1.0000
  O   O171      1.0  0.57747  0.11948  0.57964  1.0000
  O   O172      1.0  0.33734  0.23408  0.54768  1.0000
  O   O173      1.0  0.42264  0.05313  0.53694  1.0000
  O   O174      1.0  0.50561  0.19219  0.58016  1.0000
  O   O175      1.0  0.49216  0.05044  0.59039  1.0000
  O   O176      1.0  0.40920  0.16137  0.54716  1.0000
  O   O177      1.0  0.37416  0.05847  0.55338  1.0000
  O   O178      1.0  0.55409  0.18684  0.56372  1.0000
  O   O179      1.0  0.54064  0.04509  0.57395  1.0000
  O   O180      1.0  0.36072  0.16672  0.56360  1.0000
  Ca  Ca61      1.0  0.45534  0.32430  0.44077  1.0000
  Ca  Ca62      1.0  0.46095  0.44641  0.43191  1.0000
  Ca  Ca63      1.0  0.62052  0.32317  0.43730  1.0000
  Ca  Ca64      1.0  0.62911  0.44754  0.43537  1.0000
  Ti  Ti61      1.0  0.62481  0.38536  0.43634  1.0000
  Ti  Ti62      1.0  0.62481  0.26036  0.43634  1.0000
  Ti  Ti63      1.0  0.45815  0.38536  0.43634  1.0000
  Ti  Ti64      1.0  0.45815  0.26036  0.43634  1.0000
  O   O181      1.0  0.34121  0.31688  0.41798  1.0000
  O   O182      1.0  0.57509  0.45383  0.45469  1.0000
  O   O183      1.0  0.41154  0.32805  0.45232  1.0000
  O   O184      1.0  0.50475  0.44266  0.42036  1.0000
  O   O185      1.0  0.59005  0.26170  0.40961  1.0000
  O   O186      1.0  0.33969  0.40076  0.45284  1.0000
  O   O187      1.0  0.65957  0.25901  0.46306  1.0000
  O   O188      1.0  0.57661  0.36995  0.41984  1.0000
  O   O189      1.0  0.54157  0.26705  0.42605  1.0000
  O   O190      1.0  0.38817  0.39542  0.43640  1.0000
  O   O191      1.0  0.37472  0.25366  0.44662  1.0000
  O   O192      1.0  0.52813  0.37530  0.43628  1.0000
  Ca  Ca65      1.0  0.37164  0.34501  0.50443  1.0000
  Ca  Ca66      1.0  0.37724  0.46713  0.49557  1.0000
  Ca  Ca67      1.0  0.53681  0.34388  0.50097  1.0000
  Ca  Ca68      1.0  0.54540  0.46825  0.49903  1.0000
  Ti  Ti65      1.0  0.54111  0.40607  0.50000  1.0000
  Ti  Ti66      1.0  0.54111  0.28107  0.50000  1.0000
  Ti  Ti67      1.0  0.37444  0.40607  0.50000  1.0000
  Ti  Ti68      1.0  0.37444  0.28107  0.50000  1.0000
  O   O193      1.0  0.59084  0.33760  0.48164  1.0000
  O   O194      1.0  0.49138  0.47454  0.51836  1.0000
  O   O195      1.0  0.66117  0.34877  0.51598  1.0000
  O   O196      1.0  0.42104  0.46337  0.48402  1.0000
  O   O197      1.0  0.50635  0.28241  0.47327  1.0000
  O   O198      1.0  0.58931  0.42148  0.51650  1.0000
  O   O199      1.0  0.57587  0.27972  0.52673  1.0000
  O   O200      1.0  0.49290  0.39066  0.48350  1.0000
  O   O201      1.0  0.45787  0.28776  0.48971  1.0000
  O   O202      1.0  0.63779  0.41613  0.50006  1.0000
  O   O203      1.0  0.62435  0.27438  0.51029  1.0000
  O   O204      1.0  0.44442  0.39601  0.49994  1.0000
  Ca  Ca69      1.0  0.62127  0.36572  0.56809  1.0000
  Ca  Ca70      1.0  0.62687  0.48784  0.55923  1.0000
  Ca  Ca71      1.0  0.45311  0.36460  0.56463  1.0000
  Ca  Ca72      1.0  0.46170  0.48897  0.56270  1.0000
  Ti  Ti69      1.0  0.45740  0.42678  0.56366  1.0000
  Ti  Ti70      1.0  0.45740  0.30178  0.56366  1.0000
  Ti  Ti71      1.0  0.62407  0.42678  0.56366  1.0000
  Ti  Ti72      1.0  0.62407  0.30178  0.56366  1.0000
  O   O205      1.0  0.50713  0.35831  0.54531  1.0000
  O   O206      1.0  0.40767  0.49525  0.58202  1.0000
  O   O207      1.0  0.57747  0.36948  0.57964  1.0000
  O   O208      1.0  0.33734  0.48408  0.54768  1.0000
  O   O209      1.0  0.42264  0.30313  0.53694  1.0000
  O   O210      1.0  0.50561  0.44219  0.58016  1.0000
  O   O211      1.0  0.49216  0.30044  0.59039  1.0000
  O   O212      1.0  0.40920  0.41137  0.54716  1.0000
  O   O213      1.0  0.37416  0.30847  0.55338  1.0000
  O   O214      1.0  0.55409  0.43684  0.56372  1.0000
  O   O215      1.0  0.54064  0.29509  0.57395  1.0000
  O   O216      1.0  0.36072  0.41672  0.56360  1.0000
  Ca  Ca73      1.0  0.45534  0.57430  0.44077  1.0000
  Ca  Ca74      1.0  0.46095  0.69641  0.43191  1.0000
  Ca  Ca75      1.0  0.62052  0.57317  0.43730  1.0000
  Ca  Ca76      1.0  0.62911  0.69754  0.43537  1.0000
  Ti  Ti73      1.0  0.62481  0.63536  0.43634  1.0000
  Ti  Ti74      1.0  0.62481  0.51036  0.43634  1.0000
  Ti  Ti75      1.0  0.45815  0.63536  0.43634  1.0000
  Ti  Ti76      1.0  0.45815  0.51036  0.43634  1.0000
  O   O217      1.0  0.34121  0.56688  0.41798  1.0000
  O   O218      1.0  0.57509  0.70383  0.45469  1.0000
  O   O219      1.0  0.41154  0.57805  0.45232  1.0000
  O   O220      1.0  0.50475  0.69266  0.42036  1.0000
  O   O221      1.0  0.59005  0.51170  0.40961  1.0000
  O   O222      1.0  0.33969  0.65076  0.45284  1.0000
  O   O223      1.0  0.65957  0.50901  0.46306  1.0000
  O   O224      1.0  0.57661  0.61995  0.41984  1.0000
  O   O225      1.0  0.54157  0.51705  0.42605  1.0000
  O   O226      1.0  0.38817  0.64542  0.43640  1.0000
  O   O227      1.0  0.37472  0.50366  0.44662  1.0000
  O   O228      1.0  0.52813  0.62530  0.43628  1.0000
  Ca  Ca77      1.0  0.37164  0.59501  0.50443  1.0000
  Ca  Ca78      1.0  0.37724  0.71713  0.49557  1.0000
  Ca  Ca79      1.0  0.53681  0.59388  0.50097  1.0000
  Ca  Ca80      1.0  0.54540  0.71825  0.49903  1.0000
  Ti  Ti77      1.0  0.54111  0.65607  0.50000  1.0000
  Ti  Ti78      1.0  0.54111  0.53107  0.50000  1.0000
  Ti  Ti79      1.0  0.37444  0.65607  0.50000  1.0000
  Ti  Ti80      1.0  0.37444  0.53107  0.50000  1.0000
  O   O229      1.0  0.59084  0.58760  0.48164  1.0000
  O   O230      1.0  0.49138  0.72454  0.51836  1.0000
  O   O231      1.0  0.66117  0.59877  0.51598  1.0000
  O   O232      1.0  0.42104  0.71337  0.48402  1.0000
  O   O233      1.0  0.50635  0.53241  0.47327  1.0000
  O   O234      1.0  0.58931  0.67148  0.51650  1.0000
  O   O235      1.0  0.57587  0.52972  0.52673  1.0000
  O   O236      1.0  0.49290  0.64066  0.48350  1.0000
  O   O237      1.0  0.45787  0.53776  0.48971  1.0000
  O   O238      1.0  0.63779  0.66613  0.50006  1.0000
  O   O239      1.0  0.62435  0.52438  0.51029  1.0000
  O   O240      1.0  0.44442  0.64601  0.49994  1.0000
  Ca  Ca81      1.0  0.62127  0.61572  0.56809  1.0000
  Ca  Ca82      1.0  0.62687  0.73784  0.55923  1.0000
  Ca  Ca83      1.0  0.45311  0.61460  0.56463  1.0000
  Ca  Ca84      1.0  0.46170  0.73897  0.56270  1.0000
  Ti  Ti81      1.0  0.45740  0.67678  0.56366  1.0000
  Ti  Ti82      1.0  0.45740  0.55178  0.56366  1.0000
  Ti  Ti83      1.0  0.62407  0.67678  0.56366  1.0000
  Ti  Ti84      1.0  0.62407  0.55178  0.56366  1.0000
  O   O241      1.0  0.50713  0.60831  0.54531  1.0000
  O   O242      1.0  0.40767  0.74525  0.58202  1.0000
  O   O243      1.0  0.57747  0.61948  0.57964  1.0000
  O   O244      1.0  0.33734  0.73408  0.54768  1.0000
  O   O245      1.0  0.42264  0.55313  0.53694  1.0000
  O   O246      1.0  0.50561  0.69219  0.58016  1.0000
  O   O247      1.0  0.49216  0.55044  0.59039  1.0000
  O   O248      1.0  0.40920  0.66137  0.54716  1.0000
  O   O249      1.0  0.37416  0.55847  0.55338  1.0000
  O   O250      1.0  0.55409  0.68684  0.56372  1.0000
  O   O251      1.0  0.54064  0.54509  0.57395  1.0000
  O   O252      1.0  0.36072  0.66672  0.56360  1.0000
  Ca  Ca85      1.0  0.45534  0.82430  0.44077  1.0000
  Ca  Ca86      1.0  0.46095  0.94641  0.43191  1.0000
  Ca  Ca87      1.0  0.62052  0.82317  0.43730  1.0000
  Ca  Ca88      1.0  0.62911  0.94754  0.43537  1.0000
  Ti  Ti85      1.0  0.62481  0.88536  0.43634  1.0000
  Ti  Ti86      1.0  0.62481  0.76036  0.43634  1.0000
  Ti  Ti87      1.0  0.45815  0.88536  0.43634  1.0000
  Ti  Ti88      1.0  0.45815  0.76036  0.43634  1.0000
  O   O253      1.0  0.34121  0.81688  0.41798  1.0000
  O   O254      1.0  0.57509  0.95383  0.45469  1.0000
  O   O255      1.0  0.41154  0.82805  0.45232  1.0000
  O   O256      1.0  0.50475  0.94266  0.42036  1.0000
  O   O257      1.0  0.59005  0.76170  0.40961  1.0000
  O   O258      1.0  0.33969  0.90076  0.45284  1.0000
  O   O259      1.0  0.65957  0.75901  0.46306  1.0000
  O   O260      1.0  0.57661  0.86995  0.41984  1.0000
  O   O261      1.0  0.54157  0.76705  0.42605  1.0000
  O   O262      1.0  0.38817  0.89542  0.43640  1.0000
  O   O263      1.0  0.37472  0.75366  0.44662  1.0000
  O   O264      1.0  0.52813  0.87530  0.43628  1.0000
  Ca  Ca89      1.0  0.37164  0.84501  0.50443  1.0000
  Ca  Ca90      1.0  0.37724  0.96713  0.49557  1.0000
  Ca  Ca91      1.0  0.53681  0.84388  0.50097  1.0000
  Ca  Ca92      1.0  0.54540  0.96825  0.49903  1.0000
  Ti  Ti89      1.0  0.54111  0.90607  0.50000  1.0000
  Ti  Ti90      1.0  0.54111  0.78107  0.50000  1.0000
  Ti  Ti91      1.0  0.37444  0.90607  0.50000  1.0000
  Ti  Ti92      1.0  0.37444  0.78107  0.50000  1.0000
  O   O265      1.0  0.59084  0.83760  0.48164  1.0000
  O   O266      1.0  0.49138  0.97454  0.51836  1.0000
  O   O267      1.0  0.66117  0.84877  0.51598  1.0000
  O   O268      1.0  0.42104  0.96337  0.48402  1.0000
  O   O269      1.0  0.50635  0.78241  0.47327  1.0000
  O   O270      1.0  0.58931  0.92148  0.51650  1.0000
  O   O271      1.0  0.57587  0.77972  0.52673  1.0000
  O   O272      1.0  0.49290  0.89066  0.48350  1.0000
  O   O273      1.0  0.45787  0.78776  0.48971  1.0000
  O   O274      1.0  0.63779  0.91613  0.50006  1.0000
  O   O275      1.0  0.62435  0.77438  0.51029  1.0000
  O   O276      1.0  0.44442  0.89601  0.49994  1.0000
  Ca  Ca93      1.0  0.62127  0.86572  0.56809  1.0000
  Ca  Ca94      1.0  0.62687  0.98784  0.55923  1.0000
  Ca  Ca95      1.0  0.45311  0.86460  0.56463  1.0000
  Ca  Ca96      1.0  0.46170  0.98897  0.56270  1.0000
  Ti  Ti93      1.0  0.45740  0.92678  0.56366  1.0000
  Ti  Ti94      1.0  0.45740  0.80178  0.56366  1.0000
  Ti  Ti95      1.0  0.62407  0.92678  0.56366  1.0000
  Ti  Ti96      1.0  0.62407  0.80178  0.56366  1.0000
  O   O277      1.0  0.50713  0.85831  0.54531  1.0000
  O   O278      1.0  0.40767  0.99525  0.58202  1.0000
  O   O279      1.0  0.57747  0.86948  0.57964  1.0000
  O   O280      1.0  0.33734  0.98408  0.54768  1.0000
  O   O281      1.0  0.42264  0.80313  0.53694  1.0000
  O   O282      1.0  0.50561  0.94219  0.58016  1.0000
  O   O283      1.0  0.49216  0.80044  0.59039  1.0000
  O   O284      1.0  0.40920  0.91137  0.54716  1.0000
  O   O285      1.0  0.37416  0.80847  0.55338  1.0000
  O   O286      1.0  0.55409  0.93684  0.56372  1.0000
  O   O287      1.0  0.54064  0.79509  0.57395  1.0000
  O   O288      1.0  0.36072  0.91672  0.56360  1.0000
  Ca  Ca97      1.0  0.78868  0.07430  0.44077  1.0000
  Ca  Ca98      1.0  0.79428  0.19641  0.43191  1.0000
  Ca  Ca99      1.0  0.95385  0.07317  0.43730  1.0000
  Ca  Ca100     1.0  0.96244  0.19754  0.43537  1.0000
  Ti  Ti97      1.0  0.95815  0.13536  0.43634  1.0000
  Ti  Ti98      1.0  0.95815  0.01036  0.43634  1.0000
  Ti  Ti99      1.0  0.79148  0.13536  0.43634  1.0000
  Ti  Ti100     1.0  0.79148  0.01036  0.43634  1.0000
  O   O289      1.0  0.67454  0.06688  0.41798  1.0000
  O   O290      1.0  0.90842  0.20383  0.45469  1.0000
  O   O291      1.0  0.74488  0.07805  0.45232  1.0000
  O   O292      1.0  0.83808  0.19266  0.42036  1.0000
  O   O293      1.0  0.92339  0.01170  0.40961  1.0000
  O   O294      1.0  0.67302  0.15076  0.45284  1.0000
  O   O295      1.0  0.99291  0.00901  0.46306  1.0000
  O   O296      1.0  0.90994  0.11995  0.41984  1.0000
  O   O297      1.0  0.87491  0.01705  0.42605  1.0000
  O   O298      1.0  0.72150  0.14542  0.43640  1.0000
  O   O299      1.0  0.70805  0.00366  0.44662  1.0000
  O   O300      1.0  0.86146  0.12530  0.43628  1.0000
  Ca  Ca101     1.0  0.70497  0.09501  0.50443  1.0000
  Ca  Ca102     1.0  0.71058  0.21713  0.49557  1.0000
  Ca  Ca103     1.0  0.87015  0.09388  0.50097  1.0000
  Ca  Ca104     1.0  0.87874  0.21825  0.49903  1.0000
  Ti  Ti101     1.0  0.87444  0.15607  0.50000  1.0000
  Ti  Ti102     1.0  0.87444  0.03107  0.50000  1.0000
  Ti  Ti103     1.0  0.70777  0.15607  0.50000  1.0000
  Ti  Ti104     1.0  0.70777  0.03107  0.50000  1.0000
  O   O301      1.0  0.92417  0.08760  0.48164  1.0000
  O   O302      1.0  0.82471  0.22454  0.51836  1.0000
  O   O303      1.0  0.99451  0.09877  0.51598  1.0000
  O   O304      1.0  0.75438  0.21337  0.48402  1.0000
  O   O305      1.0  0.83968  0.03241  0.47327  1.0000
  O   O306      1.0  0.92265  0.17148  0.51650  1.0000
  O   O307      1.0  0.90920  0.02972  0.52673  1.0000
  O   O308      1.0  0.82623  0.14066  0.48350  1.0000
  O   O309      1.0  0.79120  0.03776  0.48971  1.0000
  O   O310      1.0  0.97113  0.16613  0.50006  1.0000
  O   O311      1.0  0.95768  0.02438  0.51029  1.0000
  O   O312      1.0  0.77776  0.14601  0.49994  1.0000
  Ca  Ca105     1.0  0.95460  0.11572  0.56809  1.0000
  Ca  Ca106     1.0  0.96021  0.23784  0.55923  1.0000
  Ca  Ca107     1.0  0.78644  0.11460  0.56463  1.0000
  Ca  Ca108     1.0  0.79503  0.23897  0.56270  1.0000
  Ti  Ti105     1.0  0.79074  0.17678  0.56366  1.0000
  Ti  Ti106     1.0  0.79074  0.05178  0.56366  1.0000
  Ti  Ti107     1.0  0.95740  0.17678  0.56366  1.0000
  Ti  Ti108     1.0  0.95740  0.05178  0.56366  1.0000
  O   O313      1.0  0.84046  0.10831  0.54531  1.0000
  O   O314      1.0  0.74101  0.24525  0.58202  1.0000
  O   O315      1.0  0.91080  0.11948  0.57964  1.0000
  O   O316      1.0  0.67067  0.23408  0.54768  1.0000
  O   O317      1.0  0.75598  0.05313  0.53694  1.0000
  O   O318      1.0  0.83894  0.19219  0.58016  1.0000
  O   O319      1.0  0.82550  0.05044  0.59039  1.0000
  O   O320      1.0  0.74253  0.16137  0.54716  1.0000
  O   O321      1.0  0.70750  0.05847  0.55338  1.0000
  O   O322      1.0  0.88742  0.18684  0.56372  1.0000
  O   O323      1.0  0.87397  0.04509  0.57395  1.0000
  O   O324      1.0  0.69405  0.16672  0.56360  1.0000
  Ca  Ca109     1.0  0.78868  0.32430  0.44077  1.0000
  Ca  Ca110     1.0  0.79428  0.44641  0.43191  1.0000
  Ca  Ca111     1.0  0.95385  0.32317  0.43730  1.0000
  Ca  Ca112     1.0  0.96244  0.44754  0.43537  1.0000
  Ti  Ti109     1.0  0.95815  0.38536  0.43634  1.0000
  Ti  Ti110     1.0  0.95815  0.26036  0.43634  1.0000
  Ti  Ti111     1.0  0.79148  0.38536  0.43634  1.0000
  Ti  Ti112     1.0  0.79148  0.26036  0.43634  1.0000
  O   O325      1.0  0.67454  0.31688  0.41798  1.0000
  O   O326      1.0  0.90842  0.45383  0.45469  1.0000
  O   O327      1.0  0.74488  0.32805  0.45232  1.0000
  O   O328      1.0  0.83808  0.44266  0.42036  1.0000
  O   O329      1.0  0.92339  0.26170  0.40961  1.0000
  O   O330      1.0  0.67302  0.40076  0.45284  1.0000
  O   O331      1.0  0.99291  0.25901  0.46306  1.0000
  O   O332      1.0  0.90994  0.36995  0.41984  1.0000
  O   O333      1.0  0.87491  0.26705  0.42605  1.0000
  O   O334      1.0  0.72150  0.39542  0.43640  1.0000
  O   O335      1.0  0.70805  0.25366  0.44662  1.0000
  O   O336      1.0  0.86146  0.37530  0.43628  1.0000
  Ca  Ca113     1.0  0.70497  0.34501  0.50443  1.0000
  Ca  Ca114     1.0  0.71058  0.46713  0.49557  1.0000
  Ca  Ca115     1.0  0.87015  0.34388  0.50097  1.0000
  Ca  Ca116     1.0  0.87874  0.46825  0.49903  1.0000
  Ti  Ti113     1.0  0.87444  0.40607  0.50000  1.0000
  Ti  Ti114     1.0  0.87444  0.28107  0.50000  1.0000
  Ti  Ti115     1.0  0.70777  0.40607  0.50000  1.0000
  Ti  Ti116     1.0  0.70777  0.28107  0.50000  1.0000
  O   O337      1.0  0.92417  0.33760  0.48164  1.0000
  O   O338      1.0  0.82471  0.47454  0.51836  1.0000
  O   O339      1.0  0.99451  0.34877  0.51598  1.0000
  O   O340      1.0  0.75438  0.46337  0.48402  1.0000
  O   O341      1.0  0.83968  0.28241  0.47327  1.0000
  O   O342      1.0  0.92265  0.42148  0.51650  1.0000
  O   O343      1.0  0.90920  0.27972  0.52673  1.0000
  O   O344      1.0  0.82623  0.39066  0.48350  1.0000
  O   O345      1.0  0.79120  0.28776  0.48971  1.0000
  O   O346      1.0  0.97113  0.41613  0.50006  1.0000
  O   O347      1.0  0.95768  0.27438  0.51029  1.0000
  O   O348      1.0  0.77776  0.39601  0.49994  1.0000
  Ca  Ca117     1.0  0.95460  0.36572  0.56809  1.0000
  Ca  Ca118     1.0  0.96021  0.48784  0.55923  1.0000
  Ca  Ca119     1.0  0.78644  0.36460  0.56463  1.0000
  Ca  Ca120     1.0  0.79503  0.48897  0.56270  1.0000
  Ti  Ti117     1.0  0.79074  0.42678  0.56366  1.0000
  Ti  Ti118     1.0  0.79074  0.30178  0.56366  1.0000
  Ti  Ti119     1.0  0.95740  0.42678  0.56366  1.0000
  Ti  Ti120     1.0  0.95740  0.30178  0.56366  1.0000
  O   O349      1.0  0.84046  0.35831  0.54531  1.0000
  O   O350      1.0  0.74101  0.49525  0.58202  1.0000
  O   O351      1.0  0.91080  0.36948  0.57964  1.0000
  O   O352      1.0  0.67067  0.48408  0.54768  1.0000
  O   O353      1.0  0.75598  0.30313  0.53694  1.0000
  O   O354      1.0  0.83894  0.44219  0.58016  1.0000
  O   O355      1.0  0.82550  0.30044  0.59039  1.0000
  O   O356      1.0  0.74253  0.41137  0.54716  1.0000
  O   O357      1.0  0.70750  0.30847  0.55338  1.0000
  O   O358      1.0  0.88742  0.43684  0.56372  1.0000
  O   O359      1.0  0.87397  0.29509  0.57395  1.0000
  O   O360      1.0  0.69405  0.41672  0.56360  1.0000
  Ca  Ca121     1.0  0.78868  0.57430  0.44077  1.0000
  Ca  Ca122     1.0  0.79428  0.69641  0.43191  1.0000
  Ca  Ca123     1.0  0.95385  0.57317  0.43730  1.0000
  Ca  Ca124     1.0  0.96244  0.69754  0.43537  1.0000
  Ti  Ti121     1.0  0.95815  0.63536  0.43634  1.0000
  Ti  Ti122     1.0  0.95815  0.51036  0.43634  1.0000
  Ti  Ti123     1.0  0.79148  0.63536  0.43634  1.0000
  Ti  Ti124     1.0  0.79148  0.51036  0.43634  1.0000
  O   O361      1.0  0.67454  0.56688  0.41798  1.0000
  O   O362      1.0  0.90842  0.70383  0.45469  1.0000
  O   O363      1.0  0.74488  0.57805  0.45232  1.0000
  O   O364      1.0  0.83808  0.69266  0.42036  1.0000
  O   O365      1.0  0.92339  0.51170  0.40961  1.0000
  O   O366      1.0  0.67302  0.65076  0.45284  1.0000
  O   O367      1.0  0.99291  0.50901  0.46306  1.0000
  O   O368      1.0  0.90994  0.61995  0.41984  1.0000
  O   O369      1.0  0.87491  0.51705  0.42605  1.0000
  O   O370      1.0  0.72150  0.64542  0.43640  1.0000
  O   O371      1.0  0.70805  0.50366  0.44662  1.0000
  O   O372      1.0  0.86146  0.62530  0.43628  1.0000
  Ca  Ca125     1.0  0.70497  0.59501  0.50443  1.0000
  Ca  Ca126     1.0  0.71058  0.71713  0.49557  1.0000
  Ca  Ca127     1.0  0.87015  0.59388  0.50097  1.0000
  Ca  Ca128     1.0  0.87874  0.71825  0.49903  1.0000
  Ti  Ti125     1.0  0.87444  0.65607  0.50000  1.0000
  Ti  Ti126     1.0  0.87444  0.53107  0.50000  1.0000
  Ti  Ti127     1.0  0.70777  0.65607  0.50000  1.0000
  Ti  Ti128     1.0  0.70777  0.53107  0.50000  1.0000
  O   O373      1.0  0.92417  0.58760  0.48164  1.0000
  O   O374      1.0  0.82471  0.72454  0.51836  1.0000
  O   O375      1.0  0.99451  0.59877  0.51598  1.0000
  O   O376      1.0  0.75438  0.71337  0.48402  1.0000
  O   O377      1.0  0.83968  0.53241  0.47327  1.0000
  O   O378      1.0  0.92265  0.67148  0.51650  1.0000
  O   O379      1.0  0.90920  0.52972  0.52673  1.0000
  O   O380      1.0  0.82623  0.64066  0.48350  1.0000
  O   O381      1.0  0.79120  0.53776  0.48971  1.0000
  O   O382      1.0  0.97113  0.66613  0.50006  1.0000
  O   O383      1.0  0.95768  0.52438  0.51029  1.0000
  O   O384      1.0  0.77776  0.64601  0.49994  1.0000
  Ca  Ca129     1.0  0.95460  0.61572  0.56809  1.0000
  Ca  Ca130     1.0  0.96021  0.73784  0.55923  1.0000
  Ca  Ca131     1.0  0.78644  0.61460  0.56463  1.0000
  Ca  Ca132     1.0  0.79503  0.73897  0.56270  1.0000
  Ti  Ti129     1.0  0.79074  0.67678  0.56366  1.0000
  Ti  Ti130     1.0  0.79074  0.55178  0.56366  1.0000
  Ti  Ti131     1.0  0.95740  0.67678  0.56366  1.0000
  Ti  Ti132     1.0  0.95740  0.55178  0.56366  1.0000
  O   O385      1.0  0.84046  0.60831  0.54531  1.0000
  O   O386      1.0  0.74101  0.74525  0.58202  1.0000
  O   O387      1.0  0.91080  0.61948  0.57964  1.0000
  O   O388      1.0  0.67067  0.73408  0.54768  1.0000
  O   O389      1.0  0.75598  0.55313  0.53694  1.0000
  O   O390      1.0  0.83894  0.69219  0.58016  1.0000
  O   O391      1.0  0.82550  0.55044  0.59039  1.0000
  O   O392      1.0  0.74253  0.66137  0.54716  1.0000
  O   O393      1.0  0.70750  0.55847  0.55338  1.0000
  O   O394      1.0  0.88742  0.68684  0.56372  1.0000
  O   O395      1.0  0.87397  0.54509  0.57395  1.0000
  O   O396      1.0  0.69405  0.66672  0.56360  1.0000
  Ca  Ca133     1.0  0.78868  0.82430  0.44077  1.0000
  Ca  Ca134     1.0  0.79428  0.94641  0.43191  1.0000
  Ca  Ca135     1.0  0.95385  0.82317  0.43730  1.0000
  Ca  Ca136     1.0  0.96244  0.94754  0.43537  1.0000
  Ti  Ti133     1.0  0.95815  0.88536  0.43634  1.0000
  Ti  Ti134     1.0  0.95815  0.76036  0.43634  1.0000
  Ti  Ti135     1.0  0.79148  0.88536  0.43634  1.0000
  Ti  Ti136     1.0  0.79148  0.76036  0.43634  1.0000
  O   O397      1.0  0.67454  0.81688  0.41798  1.0000
  O   O398      1.0  0.90842  0.95383  0.45469  1.0000
  O   O399      1.0  0.74488  0.82805  0.45232  1.0000
  O   O400      1.0  0.83808  0.94266  0.42036  1.0000
  O   O401      1.0  0.92339  0.76170  0.40961  1.0000
  O   O402      1.0  0.67302  0.90076  0.45284  1.0000
  O   O403      1.0  0.99291  0.75901  0.46306  1.0000
  O   O404      1.0  0.90994  0.86995  0.41984  1.0000
  O   O405      1.0  0.87491  0.76705  0.42605  1.0000
  O   O406      1.0  0.72150  0.89542  0.43640  1.0000
  O   O407      1.0  0.70805  0.75366  0.44662  1.0000
  O   O408      1.0  0.86146  0.87530  0.43628  1.0000
  Ca  Ca137     1.0  0.70497  0.84501  0.50443  1.0000
  Ca  Ca138     1.0  0.71058  0.96713  0.49557  1.0000
  Ca  Ca139     1.0  0.87015  0.84388  0.50097  1.0000
  Ca  Ca140     1.0  0.87874  0.96825  0.49903  1.0000
  Ti  Ti137     1.0  0.87444  0.90607  0.50000  1.0000
  Ti  Ti138     1.0  0.87444  0.78107  0.50000  1.0000
  Ti  Ti139     1.0  0.70777  0.90607  0.50000  1.0000
  Ti  Ti140     1.0  0.70777  0.78107  0.50000  1.0000
  O   O409      1.0  0.92417  0.83760  0.48164  1.0000
  O   O410      1.0  0.82471  0.97454  0.51836  1.0000
  O   O411      1.0  0.99451  0.84877  0.51598  1.0000
  O   O412      1.0  0.75438  0.96337  0.48402  1.0000
  O   O413      1.0  0.83968  0.78241  0.47327  1.0000
  O   O414      1.0  0.92265  0.92148  0.51650  1.0000
  O   O415      1.0  0.90920  0.77972  0.52673  1.0000
  O   O416      1.0  0.82623  0.89066  0.48350  1.0000
  O   O417      1.0  0.79120  0.78776  0.48971  1.0000
  O   O418      1.0  0.97113  0.91613  0.50006  1.0000
  O   O419      1.0  0.95768  0.77438  0.51029  1.0000
  O   O420      1.0  0.77776  0.89601  0.49994  1.0000
  Ca  Ca141     1.0  0.95460  0.86572  0.56809  1.0000
  Ca  Ca142     1.0  0.96021  0.98784  0.55923  1.0000
  Ca  Ca143     1.0  0.78644  0.86460  0.56463  1.0000
  Ca  Ca144     1.0  0.79503  0.98897  0.56270  1.0000
  Ti  Ti141     1.0  0.79074  0.92678  0.56366  1.0000
  Ti  Ti142     1.0  0.79074  0.80178  0.56366  1.0000
  Ti  Ti143     1.0  0.95740  0.92678  0.56366  1.0000
  Ti  Ti144     1.0  0.95740  0.80178  0.56366  1.0000
  O   O421      1.0  0.84046  0.85831  0.54531  1.0000
  O   O422      1.0  0.74101  0.99525  0.58202  1.0000
  O   O423      1.0  0.91080  0.86948  0.57964  1.0000
  O   O424      1.0  0.67067  0.98408  0.54768  1.0000
  O   O425      1.0  0.75598  0.80313  0.53694  1.0000
  O   O426      1.0  0.83894  0.94219  0.58016  1.0000
  O   O427      1.0  0.82550  0.80044  0.59039  1.0000
  O   O428      1.0  0.74253  0.91137  0.54716  1.0000
  O   O429      1.0  0.70750  0.80847  0.55338  1.0000
  O   O430      1.0  0.88742  0.93684  0.56372  1.0000
  O   O431      1.0  0.87397  0.79509  0.57395  1.0000
  O   O432      1.0  0.69405  0.91672  0.56360  1.0000
