data_image0
_chemical_formula_structural       Ca4Ti4O12Ca4Ti4O12Ca4Ti4O12Ca4Ti4O12Ca4Ti4O12Ca4Ti4O12Ca4Ti4O12Ca4Ti4O12Ca4Ti4O12Ca4Ti4O12Ca4Ti4O12Ca4Ti4O12Ca4Ti4O12Ca4Ti4O12Ca4Ti4O12Ca4Ti4O12Ca4Ti4O12Ca4Ti4O12Ca4Ti4O12Ca4Ti4O12Ca4Ti4O12Ca4Ti4O12Ca4Ti4O12Ca4Ti4O12Ca4Ti4O12Ca4Ti4O12Ca4Ti4O12Ca4Ti4O12Ca4Ti4O12Ca4Ti4O12Ca4Ti4O12Ca4Ti4O12Ca4Ti4O12Ca4Ti4O12Ca4Ti4O12Ca4Ti4O12Ca4Ti4O12Ca4Ti4O12Ca4Ti4O12Ca4Ti4O12Ca4Ti4O12Ca4Ti4O12Ca4Ti4O12Ca4Ti4O12Ca4Ti4O12Ca4Ti4O12Ca4Ti4O12Ca4Ti4O12Ca4Ti4O12Ca4Ti4O12Ca4Ti4O12Ca4Ti4O12Ca4Ti4O12Ca4Ti4O12Ca4Ti4O12Ca4Ti4O12Ca4Ti4O12Ca4Ti4O12Ca4Ti4O12Ca4Ti4O12Ca4Ti4O12Ca4Ti4O12Ca4Ti4O12Ca4Ti4O12Ca4Ti4O12Ca4Ti4O12Ca4Ti4O12Ca4Ti4O12Ca4Ti4O12Ca4Ti4O12Ca4Ti4O12Ca4Ti4O12Ca4Ti4O12Ca4Ti4O12Ca4Ti4O12Ca4Ti4O12Ca4Ti4O12Ca4Ti4O12Ca4Ti4O12Ca4Ti4O12Ca4Ti4O12Ca4Ti4O12Ca4Ti4O12Ca4Ti4O12Ca4Ti4O12Ca4Ti4O12Ca4Ti4O12Ca4Ti4O12Ca4Ti4O12Ca4Ti4O12Ca4Ti4O12Ca4Ti4O12Ca4Ti4O12Ca4Ti4O12Ca4Ti4O12Ca4Ti4O12Ca4Ti4O12Ca4Ti4O12Ca4Ti4O12Ca4Ti4O12
_chemical_formula_sum              "Ca400 Ti400 O1200"
_cell_length_a       27.314
_cell_length_b       38.1818
_cell_length_c       41.4395
_cell_angle_alpha    90
_cell_angle_beta     90
_cell_angle_gamma    90

_space_group_name_H-M_alt    "P 1"
_space_group_IT_number       1

loop_
  _space_group_symop_operation_xyz
  'x, y, z'

loop_
  _atom_site_type_symbol
  _atom_site_label
  _atom_site_symmetry_multiplicity
  _atom_site_fract_x
  _atom_site_fract_y
  _atom_site_fract_z
  _atom_site_occupancy
  Ca  Ca1       1.0  0.10848  0.15000  0.30731  1.0000
  Ca  Ca2       1.0  0.09152  0.05000  0.30496  1.0000
  Ca  Ca3       1.0  0.00848  0.15000  0.36978  1.0000
  Ca  Ca4       1.0  0.19152  0.05000  0.24249  1.0000
  Ti  Ti1       1.0  0.10000  0.10000  0.24132  1.0000
  Ti  Ti2       1.0  0.10000  0.00000  0.24132  1.0000
  Ti  Ti3       1.0  0.00000  0.10000  0.30613  1.0000
  Ti  Ti4       1.0  0.00000  0.00000  0.30613  1.0000
  O   O1        1.0  0.09627  0.15000  0.25127  1.0000
  O   O2        1.0  0.10373  0.05000  0.36100  1.0000
  O   O3        1.0  0.19627  0.15000  0.29618  1.0000
  O   O4        1.0  0.00373  0.05000  0.31609  1.0000
  O   O5        1.0  0.15792  0.19197  0.34377  1.0000
  O   O6        1.0  0.04208  0.09197  0.26850  1.0000
  O   O7        1.0  0.04208  0.00803  0.26850  1.0000
  O   O8        1.0  0.15792  0.10803  0.34377  1.0000
  O   O9        1.0  0.05792  0.19197  0.33332  1.0000
  O   O10       1.0  0.14208  0.09197  0.27895  1.0000
  O   O11       1.0  0.14208  0.00803  0.27895  1.0000
  O   O12       1.0  0.05792  0.10803  0.33332  1.0000
  Ca  Ca5       1.0  0.10848  0.15000  0.43695  1.0000
  Ca  Ca6       1.0  0.09152  0.05000  0.43459  1.0000
  Ca  Ca7       1.0  0.00848  0.15000  0.49941  1.0000
  Ca  Ca8       1.0  0.19152  0.05000  0.37213  1.0000
  Ti  Ti5       1.0  0.10000  0.10000  0.37095  1.0000
  Ti  Ti6       1.0  0.10000  0.00000  0.37095  1.0000
  Ti  Ti7       1.0  0.00000  0.10000  0.43577  1.0000
  Ti  Ti8       1.0  0.00000  0.00000  0.43577  1.0000
  O   O13       1.0  0.09627  0.15000  0.38091  1.0000
  O   O14       1.0  0.10373  0.05000  0.49063  1.0000
  O   O15       1.0  0.19627  0.15000  0.42582  1.0000
  O   O16       1.0  0.00373  0.05000  0.44572  1.0000
  O   O17       1.0  0.15792  0.19197  0.47340  1.0000
  O   O18       1.0  0.04208  0.09197  0.39814  1.0000
  O   O19       1.0  0.04208  0.00803  0.39814  1.0000
  O   O20       1.0  0.15792  0.10803  0.47340  1.0000
  O   O21       1.0  0.05792  0.19197  0.46296  1.0000
  O   O22       1.0  0.14208  0.09197  0.40858  1.0000
  O   O23       1.0  0.14208  0.00803  0.40858  1.0000
  O   O24       1.0  0.05792  0.10803  0.46296  1.0000
  Ca  Ca9       1.0  0.10848  0.15000  0.56658  1.0000
  Ca  Ca10      1.0  0.09152  0.05000  0.56423  1.0000
  Ca  Ca11      1.0  0.00848  0.15000  0.62905  1.0000
  Ca  Ca12      1.0  0.19152  0.05000  0.50176  1.0000
  Ti  Ti9       1.0  0.10000  0.10000  0.50059  1.0000
  Ti  Ti10      1.0  0.10000  0.00000  0.50059  1.0000
  Ti  Ti11      1.0  0.00000  0.10000  0.56541  1.0000
  Ti  Ti12      1.0  0.00000  0.00000  0.56541  1.0000
  O   O25       1.0  0.09627  0.15000  0.51054  1.0000
  O   O26       1.0  0.10373  0.05000  0.62027  1.0000
  O   O27       1.0  0.19627  0.15000  0.55545  1.0000
  O   O28       1.0  0.00373  0.05000  0.57536  1.0000
  O   O29       1.0  0.15792  0.19197  0.60304  1.0000
  O   O30       1.0  0.04208  0.09197  0.52777  1.0000
  O   O31       1.0  0.04208  0.00803  0.52777  1.0000
  O   O32       1.0  0.15792  0.10803  0.60304  1.0000
  O   O33       1.0  0.05792  0.19197  0.59259  1.0000
  O   O34       1.0  0.14208  0.09197  0.53822  1.0000
  O   O35       1.0  0.14208  0.00803  0.53822  1.0000
  O   O36       1.0  0.05792  0.10803  0.59259  1.0000
  Ca  Ca13      1.0  0.10848  0.15000  0.69622  1.0000
  Ca  Ca14      1.0  0.09152  0.05000  0.69387  1.0000
  Ca  Ca15      1.0  0.00848  0.15000  0.75868  1.0000
  Ca  Ca16      1.0  0.19152  0.05000  0.63140  1.0000
  Ti  Ti13      1.0  0.10000  0.10000  0.63022  1.0000
  Ti  Ti14      1.0  0.10000  0.00000  0.63022  1.0000
  Ti  Ti15      1.0  0.00000  0.10000  0.69504  1.0000
  Ti  Ti16      1.0  0.00000  0.00000  0.69504  1.0000
  O   O37       1.0  0.09627  0.15000  0.64018  1.0000
  O   O38       1.0  0.10373  0.05000  0.74991  1.0000
  O   O39       1.0  0.19627  0.15000  0.68509  1.0000
  O   O40       1.0  0.00373  0.05000  0.70500  1.0000
  O   O41       1.0  0.15792  0.19197  0.73267  1.0000
  O   O42       1.0  0.04208  0.09197  0.65741  1.0000
  O   O43       1.0  0.04208  0.00803  0.65741  1.0000
  O   O44       1.0  0.15792  0.10803  0.73267  1.0000
  O   O45       1.0  0.05792  0.19197  0.72223  1.0000
  O   O46       1.0  0.14208  0.09197  0.66786  1.0000
  O   O47       1.0  0.14208  0.00803  0.66786  1.0000
  O   O48       1.0  0.05792  0.10803  0.72223  1.0000
  Ca  Ca17      1.0  0.10848  0.35000  0.30731  1.0000
  Ca  Ca18      1.0  0.09152  0.25000  0.30496  1.0000
  Ca  Ca19      1.0  0.00848  0.35000  0.36978  1.0000
  Ca  Ca20      1.0  0.19152  0.25000  0.24249  1.0000
  Ti  Ti17      1.0  0.10000  0.30000  0.24132  1.0000
  Ti  Ti18      1.0  0.10000  0.20000  0.24132  1.0000
  Ti  Ti19      1.0  0.00000  0.30000  0.30613  1.0000
  Ti  Ti20      1.0  0.00000  0.20000  0.30613  1.0000
  O   O49       1.0  0.09627  0.35000  0.25127  1.0000
  O   O50       1.0  0.10373  0.25000  0.36100  1.0000
  O   O51       1.0  0.19627  0.35000  0.29618  1.0000
  O   O52       1.0  0.00373  0.25000  0.31609  1.0000
  O   O53       1.0  0.15792  0.39197  0.34377  1.0000
  O   O54       1.0  0.04208  0.29197  0.26850  1.0000
  O   O55       1.0  0.04208  0.20803  0.26850  1.0000
  O   O56       1.0  0.15792  0.30803  0.34377  1.0000
  O   O57       1.0  0.05792  0.39197  0.33332  1.0000
  O   O58       1.0  0.14208  0.29197  0.27895  1.0000
  O   O59       1.0  0.14208  0.20803  0.27895  1.0000
  O   O60       1.0  0.05792  0.30803  0.33332  1.0000
  Ca  Ca21      1.0  0.10848  0.35000  0.43695  1.0000
  Ca  Ca22      1.0  0.09152  0.25000  0.43459  1.0000
  Ca  Ca23      1.0  0.00848  0.35000  0.49941  1.0000
  Ca  Ca24      1.0  0.19152  0.25000  0.37213  1.0000
  Ti  Ti21      1.0  0.10000  0.30000  0.37095  1.0000
  Ti  Ti22      1.0  0.10000  0.20000  0.37095  1.0000
  Ti  Ti23      1.0  0.00000  0.30000  0.43577  1.0000
  Ti  Ti24      1.0  0.00000  0.20000  0.43577  1.0000
  O   O61       1.0  0.09627  0.35000  0.38091  1.0000
  O   O62       1.0  0.10373  0.25000  0.49063  1.0000
  O   O63       1.0  0.19627  0.35000  0.42582  1.0000
  O   O64       1.0  0.00373  0.25000  0.44572  1.0000
  O   O65       1.0  0.15792  0.39197  0.47340  1.0000
  O   O66       1.0  0.04208  0.29197  0.39814  1.0000
  O   O67       1.0  0.04208  0.20803  0.39814  1.0000
  O   O68       1.0  0.15792  0.30803  0.47340  1.0000
  O   O69       1.0  0.05792  0.39197  0.46296  1.0000
  O   O70       1.0  0.14208  0.29197  0.40858  1.0000
  O   O71       1.0  0.14208  0.20803  0.40858  1.0000
  O   O72       1.0  0.05792  0.30803  0.46296  1.0000
  Ca  Ca25      1.0  0.10848  0.35000  0.56658  1.0000
  Ca  Ca26      1.0  0.09152  0.25000  0.56423  1.0000
  Ca  Ca27      1.0  0.00848  0.35000  0.62905  1.0000
  Ca  Ca28      1.0  0.19152  0.25000  0.50176  1.0000
  Ti  Ti25      1.0  0.10000  0.30000  0.50059  1.0000
  Ti  Ti26      1.0  0.10000  0.20000  0.50059  1.0000
  Ti  Ti27      1.0  0.00000  0.30000  0.56541  1.0000
  Ti  Ti28      1.0  0.00000  0.20000  0.56541  1.0000
  O   O73       1.0  0.09627  0.35000  0.51054  1.0000
  O   O74       1.0  0.10373  0.25000  0.62027  1.0000
  O   O75       1.0  0.19627  0.35000  0.55545  1.0000
  O   O76       1.0  0.00373  0.25000  0.57536  1.0000
  O   O77       1.0  0.15792  0.39197  0.60304  1.0000
  O   O78       1.0  0.04208  0.29197  0.52777  1.0000
  O   O79       1.0  0.04208  0.20803  0.52777  1.0000
  O   O80       1.0  0.15792  0.30803  0.60304  1.0000
  O   O81       1.0  0.05792  0.39197  0.59259  1.0000
  O   O82       1.0  0.14208  0.29197  0.53822  1.0000
  O   O83       1.0  0.14208  0.20803  0.53822  1.0000
  O   O84       1.0  0.05792  0.30803  0.59259  1.0000
  Ca  Ca29      1.0  0.10848  0.35000  0.69622  1.0000
  Ca  Ca30      1.0  0.09152  0.25000  0.69387  1.0000
  Ca  Ca31      1.0  0.00848  0.35000  0.75868  1.0000
  Ca  Ca32      1.0  0.19152  0.25000  0.63140  1.0000
  Ti  Ti29      1.0  0.10000  0.30000  0.63022  1.0000
  Ti  Ti30      1.0  0.10000  0.20000  0.63022  1.0000
  Ti  Ti31      1.0  0.00000  0.30000  0.69504  1.0000
  Ti  Ti32      1.0  0.00000  0.20000  0.69504  1.0000
  O   O85       1.0  0.09627  0.35000  0.64018  1.0000
  O   O86       1.0  0.10373  0.25000  0.74991  1.0000
  O   O87       1.0  0.19627  0.35000  0.68509  1.0000
  O   O88       1.0  0.00373  0.25000  0.70500  1.0000
  O   O89       1.0  0.15792  0.39197  0.73267  1.0000
  O   O90       1.0  0.04208  0.29197  0.65741  1.0000
  O   O91       1.0  0.04208  0.20803  0.65741  1.0000
  O   O92       1.0  0.15792  0.30803  0.73267  1.0000
  O   O93       1.0  0.05792  0.39197  0.72223  1.0000
  O   O94       1.0  0.14208  0.29197  0.66786  1.0000
  O   O95       1.0  0.14208  0.20803  0.66786  1.0000
  O   O96       1.0  0.05792  0.30803  0.72223  1.0000
  Ca  Ca33      1.0  0.10848  0.55000  0.30731  1.0000
  Ca  Ca34      1.0  0.09152  0.45000  0.30496  1.0000
  Ca  Ca35      1.0  0.00848  0.55000  0.36978  1.0000
  Ca  Ca36      1.0  0.19152  0.45000  0.24249  1.0000
  Ti  Ti33      1.0  0.10000  0.50000  0.24132  1.0000
  Ti  Ti34      1.0  0.10000  0.40000  0.24132  1.0000
  Ti  Ti35      1.0  0.00000  0.50000  0.30613  1.0000
  Ti  Ti36      1.0  0.00000  0.40000  0.30613  1.0000
  O   O97       1.0  0.09627  0.55000  0.25127  1.0000
  O   O98       1.0  0.10373  0.45000  0.36100  1.0000
  O   O99       1.0  0.19627  0.55000  0.29618  1.0000
  O   O100      1.0  0.00373  0.45000  0.31609  1.0000
  O   O101      1.0  0.15792  0.59197  0.34377  1.0000
  O   O102      1.0  0.04208  0.49197  0.26850  1.0000
  O   O103      1.0  0.04208  0.40803  0.26850  1.0000
  O   O104      1.0  0.15792  0.50803  0.34377  1.0000
  O   O105      1.0  0.05792  0.59197  0.33332  1.0000
  O   O106      1.0  0.14208  0.49197  0.27895  1.0000
  O   O107      1.0  0.14208  0.40803  0.27895  1.0000
  O   O108      1.0  0.05792  0.50803  0.33332  1.0000
  Ca  Ca37      1.0  0.10848  0.55000  0.43695  1.0000
  Ca  Ca38      1.0  0.09152  0.45000  0.43459  1.0000
  Ca  Ca39      1.0  0.00848  0.55000  0.49941  1.0000
  Ca  Ca40      1.0  0.19152  0.45000  0.37213  1.0000
  Ti  Ti37      1.0  0.10000  0.50000  0.37095  1.0000
  Ti  Ti38      1.0  0.10000  0.40000  0.37095  1.0000
  Ti  Ti39      1.0  0.00000  0.50000  0.43577  1.0000
  Ti  Ti40      1.0  0.00000  0.40000  0.43577  1.0000
  O   O109      1.0  0.09627  0.55000  0.38091  1.0000
  O   O110      1.0  0.10373  0.45000  0.49063  1.0000
  O   O111      1.0  0.19627  0.55000  0.42582  1.0000
  O   O112      1.0  0.00373  0.45000  0.44572  1.0000
  O   O113      1.0  0.15792  0.59197  0.47340  1.0000
  O   O114      1.0  0.04208  0.49197  0.39814  1.0000
  O   O115      1.0  0.04208  0.40803  0.39814  1.0000
  O   O116      1.0  0.15792  0.50803  0.47340  1.0000
  O   O117      1.0  0.05792  0.59197  0.46296  1.0000
  O   O118      1.0  0.14208  0.49197  0.40858  1.0000
  O   O119      1.0  0.14208  0.40803  0.40858  1.0000
  O   O120      1.0  0.05792  0.50803  0.46296  1.0000
  Ca  Ca41      1.0  0.10848  0.55000  0.56658  1.0000
  Ca  Ca42      1.0  0.09152  0.45000  0.56423  1.0000
  Ca  Ca43      1.0  0.00848  0.55000  0.62905  1.0000
  Ca  Ca44      1.0  0.19152  0.45000  0.50176  1.0000
  Ti  Ti41      1.0  0.10000  0.50000  0.50059  1.0000
  Ti  Ti42      1.0  0.10000  0.40000  0.50059  1.0000
  Ti  Ti43      1.0  0.00000  0.50000  0.56541  1.0000
  Ti  Ti44      1.0  0.00000  0.40000  0.56541  1.0000
  O   O121      1.0  0.09627  0.55000  0.51054  1.0000
  O   O122      1.0  0.10373  0.45000  0.62027  1.0000
  O   O123      1.0  0.19627  0.55000  0.55545  1.0000
  O   O124      1.0  0.00373  0.45000  0.57536  1.0000
  O   O125      1.0  0.15792  0.59197  0.60304  1.0000
  O   O126      1.0  0.04208  0.49197  0.52777  1.0000
  O   O127      1.0  0.04208  0.40803  0.52777  1.0000
  O   O128      1.0  0.15792  0.50803  0.60304  1.0000
  O   O129      1.0  0.05792  0.59197  0.59259  1.0000
  O   O130      1.0  0.14208  0.49197  0.53822  1.0000
  O   O131      1.0  0.14208  0.40803  0.53822  1.0000
  O   O132      1.0  0.05792  0.50803  0.59259  1.0000
  Ca  Ca45      1.0  0.10848  0.55000  0.69622  1.0000
  Ca  Ca46      1.0  0.09152  0.45000  0.69387  1.0000
  Ca  Ca47      1.0  0.00848  0.55000  0.75868  1.0000
  Ca  Ca48      1.0  0.19152  0.45000  0.63140  1.0000
  Ti  Ti45      1.0  0.10000  0.50000  0.63022  1.0000
  Ti  Ti46      1.0  0.10000  0.40000  0.63022  1.0000
  Ti  Ti47      1.0  0.00000  0.50000  0.69504  1.0000
  Ti  Ti48      1.0  0.00000  0.40000  0.69504  1.0000
  O   O133      1.0  0.09627  0.55000  0.64018  1.0000
  O   O134      1.0  0.10373  0.45000  0.74991  1.0000
  O   O135      1.0  0.19627  0.55000  0.68509  1.0000
  O   O136      1.0  0.00373  0.45000  0.70500  1.0000
  O   O137      1.0  0.15792  0.59197  0.73267  1.0000
  O   O138      1.0  0.04208  0.49197  0.65741  1.0000
  O   O139      1.0  0.04208  0.40803  0.65741  1.0000
  O   O140      1.0  0.15792  0.50803  0.73267  1.0000
  O   O141      1.0  0.05792  0.59197  0.72223  1.0000
  O   O142      1.0  0.14208  0.49197  0.66786  1.0000
  O   O143      1.0  0.14208  0.40803  0.66786  1.0000
  O   O144      1.0  0.05792  0.50803  0.72223  1.0000
  Ca  Ca49      1.0  0.10848  0.75000  0.30731  1.0000
  Ca  Ca50      1.0  0.09152  0.65000  0.30496  1.0000
  Ca  Ca51      1.0  0.00848  0.75000  0.36978  1.0000
  Ca  Ca52      1.0  0.19152  0.65000  0.24249  1.0000
  Ti  Ti49      1.0  0.10000  0.70000  0.24132  1.0000
  Ti  Ti50      1.0  0.10000  0.60000  0.24132  1.0000
  Ti  Ti51      1.0  0.00000  0.70000  0.30613  1.0000
  Ti  Ti52      1.0  0.00000  0.60000  0.30613  1.0000
  O   O145      1.0  0.09627  0.75000  0.25127  1.0000
  O   O146      1.0  0.10373  0.65000  0.36100  1.0000
  O   O147      1.0  0.19627  0.75000  0.29618  1.0000
  O   O148      1.0  0.00373  0.65000  0.31609  1.0000
  O   O149      1.0  0.15792  0.79197  0.34377  1.0000
  O   O150      1.0  0.04208  0.69197  0.26850  1.0000
  O   O151      1.0  0.04208  0.60803  0.26850  1.0000
  O   O152      1.0  0.15792  0.70803  0.34377  1.0000
  O   O153      1.0  0.05792  0.79197  0.33332  1.0000
  O   O154      1.0  0.14208  0.69197  0.27895  1.0000
  O   O155      1.0  0.14208  0.60803  0.27895  1.0000
  O   O156      1.0  0.05792  0.70803  0.33332  1.0000
  Ca  Ca53      1.0  0.10848  0.75000  0.43695  1.0000
  Ca  Ca54      1.0  0.09152  0.65000  0.43459  1.0000
  Ca  Ca55      1.0  0.00848  0.75000  0.49941  1.0000
  Ca  Ca56      1.0  0.19152  0.65000  0.37213  1.0000
  Ti  Ti53      1.0  0.10000  0.70000  0.37095  1.0000
  Ti  Ti54      1.0  0.10000  0.60000  0.37095  1.0000
  Ti  Ti55      1.0  0.00000  0.70000  0.43577  1.0000
  Ti  Ti56      1.0  0.00000  0.60000  0.43577  1.0000
  O   O157      1.0  0.09627  0.75000  0.38091  1.0000
  O   O158      1.0  0.10373  0.65000  0.49063  1.0000
  O   O159      1.0  0.19627  0.75000  0.42582  1.0000
  O   O160      1.0  0.00373  0.65000  0.44572  1.0000
  O   O161      1.0  0.15792  0.79197  0.47340  1.0000
  O   O162      1.0  0.04208  0.69197  0.39814  1.0000
  O   O163      1.0  0.04208  0.60803  0.39814  1.0000
  O   O164      1.0  0.15792  0.70803  0.47340  1.0000
  O   O165      1.0  0.05792  0.79197  0.46296  1.0000
  O   O166      1.0  0.14208  0.69197  0.40858  1.0000
  O   O167      1.0  0.14208  0.60803  0.40858  1.0000
  O   O168      1.0  0.05792  0.70803  0.46296  1.0000
  Ca  Ca57      1.0  0.10848  0.75000  0.56658  1.0000
  Ca  Ca58      1.0  0.09152  0.65000  0.56423  1.0000
  Ca  Ca59      1.0  0.00848  0.75000  0.62905  1.0000
  Ca  Ca60      1.0  0.19152  0.65000  0.50176  1.0000
  Ti  Ti57      1.0  0.10000  0.70000  0.50059  1.0000
  Ti  Ti58      1.0  0.10000  0.60000  0.50059  1.0000
  Ti  Ti59      1.0  0.00000  0.70000  0.56541  1.0000
  Ti  Ti60      1.0  0.00000  0.60000  0.56541  1.0000
  O   O169      1.0  0.09627  0.75000  0.51054  1.0000
  O   O170      1.0  0.10373  0.65000  0.62027  1.0000
  O   O171      1.0  0.19627  0.75000  0.55545  1.0000
  O   O172      1.0  0.00373  0.65000  0.57536  1.0000
  O   O173      1.0  0.15792  0.79197  0.60304  1.0000
  O   O174      1.0  0.04208  0.69197  0.52777  1.0000
  O   O175      1.0  0.04208  0.60803  0.52777  1.0000
  O   O176      1.0  0.15792  0.70803  0.60304  1.0000
  O   O177      1.0  0.05792  0.79197  0.59259  1.0000
  O   O178      1.0  0.14208  0.69197  0.53822  1.0000
  O   O179      1.0  0.14208  0.60803  0.53822  1.0000
  O   O180      1.0  0.05792  0.70803  0.59259  1.0000
  Ca  Ca61      1.0  0.10848  0.75000  0.69622  1.0000
  Ca  Ca62      1.0  0.09152  0.65000  0.69387  1.0000
  Ca  Ca63      1.0  0.00848  0.75000  0.75868  1.0000
  Ca  Ca64      1.0  0.19152  0.65000  0.63140  1.0000
  Ti  Ti61      1.0  0.10000  0.70000  0.63022  1.0000
  Ti  Ti62      1.0  0.10000  0.60000  0.63022  1.0000
  Ti  Ti63      1.0  0.00000  0.70000  0.69504  1.0000
  Ti  Ti64      1.0  0.00000  0.60000  0.69504  1.0000
  O   O181      1.0  0.09627  0.75000  0.64018  1.0000
  O   O182      1.0  0.10373  0.65000  0.74991  1.0000
  O   O183      1.0  0.19627  0.75000  0.68509  1.0000
  O   O184      1.0  0.00373  0.65000  0.70500  1.0000
  O   O185      1.0  0.15792  0.79197  0.73267  1.0000
  O   O186      1.0  0.04208  0.69197  0.65741  1.0000
  O   O187      1.0  0.04208  0.60803  0.65741  1.0000
  O   O188      1.0  0.15792  0.70803  0.73267  1.0000
  O   O189      1.0  0.05792  0.79197  0.72223  1.0000
  O   O190      1.0  0.14208  0.69197  0.66786  1.0000
  O   O191      1.0  0.14208  0.60803  0.66786  1.0000
  O   O192      1.0  0.05792  0.70803  0.72223  1.0000
  Ca  Ca65      1.0  0.10848  0.95000  0.30731  1.0000
  Ca  Ca66      1.0  0.09152  0.85000  0.30496  1.0000
  Ca  Ca67      1.0  0.00848  0.95000  0.36978  1.0000
  Ca  Ca68      1.0  0.19152  0.85000  0.24249  1.0000
  Ti  Ti65      1.0  0.10000  0.90000  0.24132  1.0000
  Ti  Ti66      1.0  0.10000  0.80000  0.24132  1.0000
  Ti  Ti67      1.0  0.00000  0.90000  0.30613  1.0000
  Ti  Ti68      1.0  0.00000  0.80000  0.30613  1.0000
  O   O193      1.0  0.09627  0.95000  0.25127  1.0000
  O   O194      1.0  0.10373  0.85000  0.36100  1.0000
  O   O195      1.0  0.19627  0.95000  0.29618  1.0000
  O   O196      1.0  0.00373  0.85000  0.31609  1.0000
  O   O197      1.0  0.15792  0.99197  0.34377  1.0000
  O   O198      1.0  0.04208  0.89197  0.26850  1.0000
  O   O199      1.0  0.04208  0.80803  0.26850  1.0000
  O   O200      1.0  0.15792  0.90803  0.34377  1.0000
  O   O201      1.0  0.05792  0.99197  0.33332  1.0000
  O   O202      1.0  0.14208  0.89197  0.27895  1.0000
  O   O203      1.0  0.14208  0.80803  0.27895  1.0000
  O   O204      1.0  0.05792  0.90803  0.33332  1.0000
  Ca  Ca69      1.0  0.10848  0.95000  0.43695  1.0000
  Ca  Ca70      1.0  0.09152  0.85000  0.43459  1.0000
  Ca  Ca71      1.0  0.00848  0.95000  0.49941  1.0000
  Ca  Ca72      1.0  0.19152  0.85000  0.37213  1.0000
  Ti  Ti69      1.0  0.10000  0.90000  0.37095  1.0000
  Ti  Ti70      1.0  0.10000  0.80000  0.37095  1.0000
  Ti  Ti71      1.0  0.00000  0.90000  0.43577  1.0000
  Ti  Ti72      1.0  0.00000  0.80000  0.43577  1.0000
  O   O205      1.0  0.09627  0.95000  0.38091  1.0000
  O   O206      1.0  0.10373  0.85000  0.49063  1.0000
  O   O207      1.0  0.19627  0.95000  0.42582  1.0000
  O   O208      1.0  0.00373  0.85000  0.44572  1.0000
  O   O209      1.0  0.15792  0.99197  0.47340  1.0000
  O   O210      1.0  0.04208  0.89197  0.39814  1.0000
  O   O211      1.0  0.04208  0.80803  0.39814  1.0000
  O   O212      1.0  0.15792  0.90803  0.47340  1.0000
  O   O213      1.0  0.05792  0.99197  0.46296  1.0000
  O   O214      1.0  0.14208  0.89197  0.40858  1.0000
  O   O215      1.0  0.14208  0.80803  0.40858  1.0000
  O   O216      1.0  0.05792  0.90803  0.46296  1.0000
  Ca  Ca73      1.0  0.10848  0.95000  0.56658  1.0000
  Ca  Ca74      1.0  0.09152  0.85000  0.56423  1.0000
  Ca  Ca75      1.0  0.00848  0.95000  0.62905  1.0000
  Ca  Ca76      1.0  0.19152  0.85000  0.50176  1.0000
  Ti  Ti73      1.0  0.10000  0.90000  0.50059  1.0000
  Ti  Ti74      1.0  0.10000  0.80000  0.50059  1.0000
  Ti  Ti75      1.0  0.00000  0.90000  0.56541  1.0000
  Ti  Ti76      1.0  0.00000  0.80000  0.56541  1.0000
  O   O217      1.0  0.09627  0.95000  0.51054  1.0000
  O   O218      1.0  0.10373  0.85000  0.62027  1.0000
  O   O219      1.0  0.19627  0.95000  0.55545  1.0000
  O   O220      1.0  0.00373  0.85000  0.57536  1.0000
  O   O221      1.0  0.15792  0.99197  0.60304  1.0000
  O   O222      1.0  0.04208  0.89197  0.52777  1.0000
  O   O223      1.0  0.04208  0.80803  0.52777  1.0000
  O   O224      1.0  0.15792  0.90803  0.60304  1.0000
  O   O225      1.0  0.05792  0.99197  0.59259  1.0000
  O   O226      1.0  0.14208  0.89197  0.53822  1.0000
  O   O227      1.0  0.14208  0.80803  0.53822  1.0000
  O   O228      1.0  0.05792  0.90803  0.59259  1.0000
  Ca  Ca77      1.0  0.10848  0.95000  0.69622  1.0000
  Ca  Ca78      1.0  0.09152  0.85000  0.69387  1.0000
  Ca  Ca79      1.0  0.00848  0.95000  0.75868  1.0000
  Ca  Ca80      1.0  0.19152  0.85000  0.63140  1.0000
  Ti  Ti77      1.0  0.10000  0.90000  0.63022  1.0000
  Ti  Ti78      1.0  0.10000  0.80000  0.63022  1.0000
  Ti  Ti79      1.0  0.00000  0.90000  0.69504  1.0000
  Ti  Ti80      1.0  0.00000  0.80000  0.69504  1.0000
  O   O229      1.0  0.09627  0.95000  0.64018  1.0000
  O   O230      1.0  0.10373  0.85000  0.74991  1.0000
  O   O231      1.0  0.19627  0.95000  0.68509  1.0000
  O   O232      1.0  0.00373  0.85000  0.70500  1.0000
  O   O233      1.0  0.15792  0.99197  0.73267  1.0000
  O   O234      1.0  0.04208  0.89197  0.65741  1.0000
  O   O235      1.0  0.04208  0.80803  0.65741  1.0000
  O   O236      1.0  0.15792  0.90803  0.73267  1.0000
  O   O237      1.0  0.05792  0.99197  0.72223  1.0000
  O   O238      1.0  0.14208  0.89197  0.66786  1.0000
  O   O239      1.0  0.14208  0.80803  0.66786  1.0000
  O   O240      1.0  0.05792  0.90803  0.72223  1.0000
  Ca  Ca81      1.0  0.30848  0.15000  0.30731  1.0000
  Ca  Ca82      1.0  0.29152  0.05000  0.30496  1.0000
  Ca  Ca83      1.0  0.20848  0.15000  0.36978  1.0000
  Ca  Ca84      1.0  0.39152  0.05000  0.24249  1.0000
  Ti  Ti81      1.0  0.30000  0.10000  0.24132  1.0000
  Ti  Ti82      1.0  0.30000  0.00000  0.24132  1.0000
  Ti  Ti83      1.0  0.20000  0.10000  0.30613  1.0000
  Ti  Ti84      1.0  0.20000  0.00000  0.30613  1.0000
  O   O241      1.0  0.29627  0.15000  0.25127  1.0000
  O   O242      1.0  0.30373  0.05000  0.36100  1.0000
  O   O243      1.0  0.39627  0.15000  0.29618  1.0000
  O   O244      1.0  0.20373  0.05000  0.31609  1.0000
  O   O245      1.0  0.35792  0.19197  0.34377  1.0000
  O   O246      1.0  0.24208  0.09197  0.26850  1.0000
  O   O247      1.0  0.24208  0.00803  0.26850  1.0000
  O   O248      1.0  0.35792  0.10803  0.34377  1.0000
  O   O249      1.0  0.25792  0.19197  0.33332  1.0000
  O   O250      1.0  0.34208  0.09197  0.27895  1.0000
  O   O251      1.0  0.34208  0.00803  0.27895  1.0000
  O   O252      1.0  0.25792  0.10803  0.33332  1.0000
  Ca  Ca85      1.0  0.30848  0.15000  0.43695  1.0000
  Ca  Ca86      1.0  0.29152  0.05000  0.43459  1.0000
  Ca  Ca87      1.0  0.20848  0.15000  0.49941  1.0000
  Ca  Ca88      1.0  0.39152  0.05000  0.37213  1.0000
  Ti  Ti85      1.0  0.30000  0.10000  0.37095  1.0000
  Ti  Ti86      1.0  0.30000  0.00000  0.37095  1.0000
  Ti  Ti87      1.0  0.20000  0.10000  0.43577  1.0000
  Ti  Ti88      1.0  0.20000  0.00000  0.43577  1.0000
  O   O253      1.0  0.29627  0.15000  0.38091  1.0000
  O   O254      1.0  0.30373  0.05000  0.49063  1.0000
  O   O255      1.0  0.39627  0.15000  0.42582  1.0000
  O   O256      1.0  0.20373  0.05000  0.44572  1.0000
  O   O257      1.0  0.35792  0.19197  0.47340  1.0000
  O   O258      1.0  0.24208  0.09197  0.39814  1.0000
  O   O259      1.0  0.24208  0.00803  0.39814  1.0000
  O   O260      1.0  0.35792  0.10803  0.47340  1.0000
  O   O261      1.0  0.25792  0.19197  0.46296  1.0000
  O   O262      1.0  0.34208  0.09197  0.40858  1.0000
  O   O263      1.0  0.34208  0.00803  0.40858  1.0000
  O   O264      1.0  0.25792  0.10803  0.46296  1.0000
  Ca  Ca89      1.0  0.30848  0.15000  0.56658  1.0000
  Ca  Ca90      1.0  0.29152  0.05000  0.56423  1.0000
  Ca  Ca91      1.0  0.20848  0.15000  0.62905  1.0000
  Ca  Ca92      1.0  0.39152  0.05000  0.50176  1.0000
  Ti  Ti89      1.0  0.30000  0.10000  0.50059  1.0000
  Ti  Ti90      1.0  0.30000  0.00000  0.50059  1.0000
  Ti  Ti91      1.0  0.20000  0.10000  0.56541  1.0000
  Ti  Ti92      1.0  0.20000  0.00000  0.56541  1.0000
  O   O265      1.0  0.29627  0.15000  0.51054  1.0000
  O   O266      1.0  0.30373  0.05000  0.62027  1.0000
  O   O267      1.0  0.39627  0.15000  0.55545  1.0000
  O   O268      1.0  0.20373  0.05000  0.57536  1.0000
  O   O269      1.0  0.35792  0.19197  0.60304  1.0000
  O   O270      1.0  0.24208  0.09197  0.52777  1.0000
  O   O271      1.0  0.24208  0.00803  0.52777  1.0000
  O   O272      1.0  0.35792  0.10803  0.60304  1.0000
  O   O273      1.0  0.25792  0.19197  0.59259  1.0000
  O   O274      1.0  0.34208  0.09197  0.53822  1.0000
  O   O275      1.0  0.34208  0.00803  0.53822  1.0000
  O   O276      1.0  0.25792  0.10803  0.59259  1.0000
  Ca  Ca93      1.0  0.30848  0.15000  0.69622  1.0000
  Ca  Ca94      1.0  0.29152  0.05000  0.69387  1.0000
  Ca  Ca95      1.0  0.20848  0.15000  0.75868  1.0000
  Ca  Ca96      1.0  0.39152  0.05000  0.63140  1.0000
  Ti  Ti93      1.0  0.30000  0.10000  0.63022  1.0000
  Ti  Ti94      1.0  0.30000  0.00000  0.63022  1.0000
  Ti  Ti95      1.0  0.20000  0.10000  0.69504  1.0000
  Ti  Ti96      1.0  0.20000  0.00000  0.69504  1.0000
  O   O277      1.0  0.29627  0.15000  0.64018  1.0000
  O   O278      1.0  0.30373  0.05000  0.74991  1.0000
  O   O279      1.0  0.39627  0.15000  0.68509  1.0000
  O   O280      1.0  0.20373  0.05000  0.70500  1.0000
  O   O281      1.0  0.35792  0.19197  0.73267  1.0000
  O   O282      1.0  0.24208  0.09197  0.65741  1.0000
  O   O283      1.0  0.24208  0.00803  0.65741  1.0000
  O   O284      1.0  0.35792  0.10803  0.73267  1.0000
  O   O285      1.0  0.25792  0.19197  0.72223  1.0000
  O   O286      1.0  0.34208  0.09197  0.66786  1.0000
  O   O287      1.0  0.34208  0.00803  0.66786  1.0000
  O   O288      1.0  0.25792  0.10803  0.72223  1.0000
  Ca  Ca97      1.0  0.30848  0.35000  0.30731  1.0000
  Ca  Ca98      1.0  0.29152  0.25000  0.30496  1.0000
  Ca  Ca99      1.0  0.20848  0.35000  0.36978  1.0000
  Ca  Ca100     1.0  0.39152  0.25000  0.24249  1.0000
  Ti  Ti97      1.0  0.30000  0.30000  0.24132  1.0000
  Ti  Ti98      1.0  0.30000  0.20000  0.24132  1.0000
  Ti  Ti99      1.0  0.20000  0.30000  0.30613  1.0000
  Ti  Ti100     1.0  0.20000  0.20000  0.30613  1.0000
  O   O289      1.0  0.29627  0.35000  0.25127  1.0000
  O   O290      1.0  0.30373  0.25000  0.36100  1.0000
  O   O291      1.0  0.39627  0.35000  0.29618  1.0000
  O   O292      1.0  0.20373  0.25000  0.31609  1.0000
  O   O293      1.0  0.35792  0.39197  0.34377  1.0000
  O   O294      1.0  0.24208  0.29197  0.26850  1.0000
  O   O295      1.0  0.24208  0.20803  0.26850  1.0000
  O   O296      1.0  0.35792  0.30803  0.34377  1.0000
  O   O297      1.0  0.25792  0.39197  0.33332  1.0000
  O   O298      1.0  0.34208  0.29197  0.27895  1.0000
  O   O299      1.0  0.34208  0.20803  0.27895  1.0000
  O   O300      1.0  0.25792  0.30803  0.33332  1.0000
  Ca  Ca101     1.0  0.30848  0.35000  0.43695  1.0000
  Ca  Ca102     1.0  0.29152  0.25000  0.43459  1.0000
  Ca  Ca103     1.0  0.20848  0.35000  0.49941  1.0000
  Ca  Ca104     1.0  0.39152  0.25000  0.37213  1.0000
  Ti  Ti101     1.0  0.30000  0.30000  0.37095  1.0000
  Ti  Ti102     1.0  0.30000  0.20000  0.37095  1.0000
  Ti  Ti103     1.0  0.20000  0.30000  0.43577  1.0000
  Ti  Ti104     1.0  0.20000  0.20000  0.43577  1.0000
  O   O301      1.0  0.29627  0.35000  0.38091  1.0000
  O   O302      1.0  0.30373  0.25000  0.49063  1.0000
  O   O303      1.0  0.39627  0.35000  0.42582  1.0000
  O   O304      1.0  0.20373  0.25000  0.44572  1.0000
  O   O305      1.0  0.35792  0.39197  0.47340  1.0000
  O   O306      1.0  0.24208  0.29197  0.39814  1.0000
  O   O307      1.0  0.24208  0.20803  0.39814  1.0000
  O   O308      1.0  0.35792  0.30803  0.47340  1.0000
  O   O309      1.0  0.25792  0.39197  0.46296  1.0000
  O   O310      1.0  0.34208  0.29197  0.40858  1.0000
  O   O311      1.0  0.34208  0.20803  0.40858  1.0000
  O   O312      1.0  0.25792  0.30803  0.46296  1.0000
  Ca  Ca105     1.0  0.30848  0.35000  0.56658  1.0000
  Ca  Ca106     1.0  0.29152  0.25000  0.56423  1.0000
  Ca  Ca107     1.0  0.20848  0.35000  0.62905  1.0000
  Ca  Ca108     1.0  0.39152  0.25000  0.50176  1.0000
  Ti  Ti105     1.0  0.30000  0.30000  0.50059  1.0000
  Ti  Ti106     1.0  0.30000  0.20000  0.50059  1.0000
  Ti  Ti107     1.0  0.20000  0.30000  0.56541  1.0000
  Ti  Ti108     1.0  0.20000  0.20000  0.56541  1.0000
  O   O313      1.0  0.29627  0.35000  0.51054  1.0000
  O   O314      1.0  0.30373  0.25000  0.62027  1.0000
  O   O315      1.0  0.39627  0.35000  0.55545  1.0000
  O   O316      1.0  0.20373  0.25000  0.57536  1.0000
  O   O317      1.0  0.35792  0.39197  0.60304  1.0000
  O   O318      1.0  0.24208  0.29197  0.52777  1.0000
  O   O319      1.0  0.24208  0.20803  0.52777  1.0000
  O   O320      1.0  0.35792  0.30803  0.60304  1.0000
  O   O321      1.0  0.25792  0.39197  0.59259  1.0000
  O   O322      1.0  0.34208  0.29197  0.53822  1.0000
  O   O323      1.0  0.34208  0.20803  0.53822  1.0000
  O   O324      1.0  0.25792  0.30803  0.59259  1.0000
  Ca  Ca109     1.0  0.30848  0.35000  0.69622  1.0000
  Ca  Ca110     1.0  0.29152  0.25000  0.69387  1.0000
  Ca  Ca111     1.0  0.20848  0.35000  0.75868  1.0000
  Ca  Ca112     1.0  0.39152  0.25000  0.63140  1.0000
  Ti  Ti109     1.0  0.30000  0.30000  0.63022  1.0000
  Ti  Ti110     1.0  0.30000  0.20000  0.63022  1.0000
  Ti  Ti111     1.0  0.20000  0.30000  0.69504  1.0000
  Ti  Ti112     1.0  0.20000  0.20000  0.69504  1.0000
  O   O325      1.0  0.29627  0.35000  0.64018  1.0000
  O   O326      1.0  0.30373  0.25000  0.74991  1.0000
  O   O327      1.0  0.39627  0.35000  0.68509  1.0000
  O   O328      1.0  0.20373  0.25000  0.70500  1.0000
  O   O329      1.0  0.35792  0.39197  0.73267  1.0000
  O   O330      1.0  0.24208  0.29197  0.65741  1.0000
  O   O331      1.0  0.24208  0.20803  0.65741  1.0000
  O   O332      1.0  0.35792  0.30803  0.73267  1.0000
  O   O333      1.0  0.25792  0.39197  0.72223  1.0000
  O   O334      1.0  0.34208  0.29197  0.66786  1.0000
  O   O335      1.0  0.34208  0.20803  0.66786  1.0000
  O   O336      1.0  0.25792  0.30803  0.72223  1.0000
  Ca  Ca113     1.0  0.30848  0.55000  0.30731  1.0000
  Ca  Ca114     1.0  0.29152  0.45000  0.30496  1.0000
  Ca  Ca115     1.0  0.20848  0.55000  0.36978  1.0000
  Ca  Ca116     1.0  0.39152  0.45000  0.24249  1.0000
  Ti  Ti113     1.0  0.30000  0.50000  0.24132  1.0000
  Ti  Ti114     1.0  0.30000  0.40000  0.24132  1.0000
  Ti  Ti115     1.0  0.20000  0.50000  0.30613  1.0000
  Ti  Ti116     1.0  0.20000  0.40000  0.30613  1.0000
  O   O337      1.0  0.29627  0.55000  0.25127  1.0000
  O   O338      1.0  0.30373  0.45000  0.36100  1.0000
  O   O339      1.0  0.39627  0.55000  0.29618  1.0000
  O   O340      1.0  0.20373  0.45000  0.31609  1.0000
  O   O341      1.0  0.35792  0.59197  0.34377  1.0000
  O   O342      1.0  0.24208  0.49197  0.26850  1.0000
  O   O343      1.0  0.24208  0.40803  0.26850  1.0000
  O   O344      1.0  0.35792  0.50803  0.34377  1.0000
  O   O345      1.0  0.25792  0.59197  0.33332  1.0000
  O   O346      1.0  0.34208  0.49197  0.27895  1.0000
  O   O347      1.0  0.34208  0.40803  0.27895  1.0000
  O   O348      1.0  0.25792  0.50803  0.33332  1.0000
  Ca  Ca117     1.0  0.30848  0.55000  0.43695  1.0000
  Ca  Ca118     1.0  0.29152  0.45000  0.43459  1.0000
  Ca  Ca119     1.0  0.20848  0.55000  0.49941  1.0000
  Ca  Ca120     1.0  0.39152  0.45000  0.37213  1.0000
  Ti  Ti117     1.0  0.30000  0.50000  0.37095  1.0000
  Ti  Ti118     1.0  0.30000  0.40000  0.37095  1.0000
  Ti  Ti119     1.0  0.20000  0.50000  0.43577  1.0000
  Ti  Ti120     1.0  0.20000  0.40000  0.43577  1.0000
  O   O349      1.0  0.29627  0.55000  0.38091  1.0000
  O   O350      1.0  0.30373  0.45000  0.49063  1.0000
  O   O351      1.0  0.39627  0.55000  0.42582  1.0000
  O   O352      1.0  0.20373  0.45000  0.44572  1.0000
  O   O353      1.0  0.35792  0.59197  0.47340  1.0000
  O   O354      1.0  0.24208  0.49197  0.39814  1.0000
  O   O355      1.0  0.24208  0.40803  0.39814  1.0000
  O   O356      1.0  0.35792  0.50803  0.47340  1.0000
  O   O357      1.0  0.25792  0.59197  0.46296  1.0000
  O   O358      1.0  0.34208  0.49197  0.40858  1.0000
  O   O359      1.0  0.34208  0.40803  0.40858  1.0000
  O   O360      1.0  0.25792  0.50803  0.46296  1.0000
  Ca  Ca121     1.0  0.30848  0.55000  0.56658  1.0000
  Ca  Ca122     1.0  0.29152  0.45000  0.56423  1.0000
  Ca  Ca123     1.0  0.20848  0.55000  0.62905  1.0000
  Ca  Ca124     1.0  0.39152  0.45000  0.50176  1.0000
  Ti  Ti121     1.0  0.30000  0.50000  0.50059  1.0000
  Ti  Ti122     1.0  0.30000  0.40000  0.50059  1.0000
  Ti  Ti123     1.0  0.20000  0.50000  0.56541  1.0000
  Ti  Ti124     1.0  0.20000  0.40000  0.56541  1.0000
  O   O361      1.0  0.29627  0.55000  0.51054  1.0000
  O   O362      1.0  0.30373  0.45000  0.62027  1.0000
  O   O363      1.0  0.39627  0.55000  0.55545  1.0000
  O   O364      1.0  0.20373  0.45000  0.57536  1.0000
  O   O365      1.0  0.35792  0.59197  0.60304  1.0000
  O   O366      1.0  0.24208  0.49197  0.52777  1.0000
  O   O367      1.0  0.24208  0.40803  0.52777  1.0000
  O   O368      1.0  0.35792  0.50803  0.60304  1.0000
  O   O369      1.0  0.25792  0.59197  0.59259  1.0000
  O   O370      1.0  0.34208  0.49197  0.53822  1.0000
  O   O371      1.0  0.34208  0.40803  0.53822  1.0000
  O   O372      1.0  0.25792  0.50803  0.59259  1.0000
  Ca  Ca125     1.0  0.30848  0.55000  0.69622  1.0000
  Ca  Ca126     1.0  0.29152  0.45000  0.69387  1.0000
  Ca  Ca127     1.0  0.20848  0.55000  0.75868  1.0000
  Ca  Ca128     1.0  0.39152  0.45000  0.63140  1.0000
  Ti  Ti125     1.0  0.30000  0.50000  0.63022  1.0000
  Ti  Ti126     1.0  0.30000  0.40000  0.63022  1.0000
  Ti  Ti127     1.0  0.20000  0.50000  0.69504  1.0000
  Ti  Ti128     1.0  0.20000  0.40000  0.69504  1.0000
  O   O373      1.0  0.29627  0.55000  0.64018  1.0000
  O   O374      1.0  0.30373  0.45000  0.74991  1.0000
  O   O375      1.0  0.39627  0.55000  0.68509  1.0000
  O   O376      1.0  0.20373  0.45000  0.70500  1.0000
  O   O377      1.0  0.35792  0.59197  0.73267  1.0000
  O   O378      1.0  0.24208  0.49197  0.65741  1.0000
  O   O379      1.0  0.24208  0.40803  0.65741  1.0000
  O   O380      1.0  0.35792  0.50803  0.73267  1.0000
  O   O381      1.0  0.25792  0.59197  0.72223  1.0000
  O   O382      1.0  0.34208  0.49197  0.66786  1.0000
  O   O383      1.0  0.34208  0.40803  0.66786  1.0000
  O   O384      1.0  0.25792  0.50803  0.72223  1.0000
  Ca  Ca129     1.0  0.30848  0.75000  0.30731  1.0000
  Ca  Ca130     1.0  0.29152  0.65000  0.30496  1.0000
  Ca  Ca131     1.0  0.20848  0.75000  0.36978  1.0000
  Ca  Ca132     1.0  0.39152  0.65000  0.24249  1.0000
  Ti  Ti129     1.0  0.30000  0.70000  0.24132  1.0000
  Ti  Ti130     1.0  0.30000  0.60000  0.24132  1.0000
  Ti  Ti131     1.0  0.20000  0.70000  0.30613  1.0000
  Ti  Ti132     1.0  0.20000  0.60000  0.30613  1.0000
  O   O385      1.0  0.29627  0.75000  0.25127  1.0000
  O   O386      1.0  0.30373  0.65000  0.36100  1.0000
  O   O387      1.0  0.39627  0.75000  0.29618  1.0000
  O   O388      1.0  0.20373  0.65000  0.31609  1.0000
  O   O389      1.0  0.35792  0.79197  0.34377  1.0000
  O   O390      1.0  0.24208  0.69197  0.26850  1.0000
  O   O391      1.0  0.24208  0.60803  0.26850  1.0000
  O   O392      1.0  0.35792  0.70803  0.34377  1.0000
  O   O393      1.0  0.25792  0.79197  0.33332  1.0000
  O   O394      1.0  0.34208  0.69197  0.27895  1.0000
  O   O395      1.0  0.34208  0.60803  0.27895  1.0000
  O   O396      1.0  0.25792  0.70803  0.33332  1.0000
  Ca  Ca133     1.0  0.30848  0.75000  0.43695  1.0000
  Ca  Ca134     1.0  0.29152  0.65000  0.43459  1.0000
  Ca  Ca135     1.0  0.20848  0.75000  0.49941  1.0000
  Ca  Ca136     1.0  0.39152  0.65000  0.37213  1.0000
  Ti  Ti133     1.0  0.30000  0.70000  0.37095  1.0000
  Ti  Ti134     1.0  0.30000  0.60000  0.37095  1.0000
  Ti  Ti135     1.0  0.20000  0.70000  0.43577  1.0000
  Ti  Ti136     1.0  0.20000  0.60000  0.43577  1.0000
  O   O397      1.0  0.29627  0.75000  0.38091  1.0000
  O   O398      1.0  0.30373  0.65000  0.49063  1.0000
  O   O399      1.0  0.39627  0.75000  0.42582  1.0000
  O   O400      1.0  0.20373  0.65000  0.44572  1.0000
  O   O401      1.0  0.35792  0.79197  0.47340  1.0000
  O   O402      1.0  0.24208  0.69197  0.39814  1.0000
  O   O403      1.0  0.24208  0.60803  0.39814  1.0000
  O   O404      1.0  0.35792  0.70803  0.47340  1.0000
  O   O405      1.0  0.25792  0.79197  0.46296  1.0000
  O   O406      1.0  0.34208  0.69197  0.40858  1.0000
  O   O407      1.0  0.34208  0.60803  0.40858  1.0000
  O   O408      1.0  0.25792  0.70803  0.46296  1.0000
  Ca  Ca137     1.0  0.30848  0.75000  0.56658  1.0000
  Ca  Ca138     1.0  0.29152  0.65000  0.56423  1.0000
  Ca  Ca139     1.0  0.20848  0.75000  0.62905  1.0000
  Ca  Ca140     1.0  0.39152  0.65000  0.50176  1.0000
  Ti  Ti137     1.0  0.30000  0.70000  0.50059  1.0000
  Ti  Ti138     1.0  0.30000  0.60000  0.50059  1.0000
  Ti  Ti139     1.0  0.20000  0.70000  0.56541  1.0000
  Ti  Ti140     1.0  0.20000  0.60000  0.56541  1.0000
  O   O409      1.0  0.29627  0.75000  0.51054  1.0000
  O   O410      1.0  0.30373  0.65000  0.62027  1.0000
  O   O411      1.0  0.39627  0.75000  0.55545  1.0000
  O   O412      1.0  0.20373  0.65000  0.57536  1.0000
  O   O413      1.0  0.35792  0.79197  0.60304  1.0000
  O   O414      1.0  0.24208  0.69197  0.52777  1.0000
  O   O415      1.0  0.24208  0.60803  0.52777  1.0000
  O   O416      1.0  0.35792  0.70803  0.60304  1.0000
  O   O417      1.0  0.25792  0.79197  0.59259  1.0000
  O   O418      1.0  0.34208  0.69197  0.53822  1.0000
  O   O419      1.0  0.34208  0.60803  0.53822  1.0000
  O   O420      1.0  0.25792  0.70803  0.59259  1.0000
  Ca  Ca141     1.0  0.30848  0.75000  0.69622  1.0000
  Ca  Ca142     1.0  0.29152  0.65000  0.69387  1.0000
  Ca  Ca143     1.0  0.20848  0.75000  0.75868  1.0000
  Ca  Ca144     1.0  0.39152  0.65000  0.63140  1.0000
  Ti  Ti141     1.0  0.30000  0.70000  0.63022  1.0000
  Ti  Ti142     1.0  0.30000  0.60000  0.63022  1.0000
  Ti  Ti143     1.0  0.20000  0.70000  0.69504  1.0000
  Ti  Ti144     1.0  0.20000  0.60000  0.69504  1.0000
  O   O421      1.0  0.29627  0.75000  0.64018  1.0000
  O   O422      1.0  0.30373  0.65000  0.74991  1.0000
  O   O423      1.0  0.39627  0.75000  0.68509  1.0000
  O   O424      1.0  0.20373  0.65000  0.70500  1.0000
  O   O425      1.0  0.35792  0.79197  0.73267  1.0000
  O   O426      1.0  0.24208  0.69197  0.65741  1.0000
  O   O427      1.0  0.24208  0.60803  0.65741  1.0000
  O   O428      1.0  0.35792  0.70803  0.73267  1.0000
  O   O429      1.0  0.25792  0.79197  0.72223  1.0000
  O   O430      1.0  0.34208  0.69197  0.66786  1.0000
  O   O431      1.0  0.34208  0.60803  0.66786  1.0000
  O   O432      1.0  0.25792  0.70803  0.72223  1.0000
  Ca  Ca145     1.0  0.30848  0.95000  0.30731  1.0000
  Ca  Ca146     1.0  0.29152  0.85000  0.30496  1.0000
  Ca  Ca147     1.0  0.20848  0.95000  0.36978  1.0000
  Ca  Ca148     1.0  0.39152  0.85000  0.24249  1.0000
  Ti  Ti145     1.0  0.30000  0.90000  0.24132  1.0000
  Ti  Ti146     1.0  0.30000  0.80000  0.24132  1.0000
  Ti  Ti147     1.0  0.20000  0.90000  0.30613  1.0000
  Ti  Ti148     1.0  0.20000  0.80000  0.30613  1.0000
  O   O433      1.0  0.29627  0.95000  0.25127  1.0000
  O   O434      1.0  0.30373  0.85000  0.36100  1.0000
  O   O435      1.0  0.39627  0.95000  0.29618  1.0000
  O   O436      1.0  0.20373  0.85000  0.31609  1.0000
  O   O437      1.0  0.35792  0.99197  0.34377  1.0000
  O   O438      1.0  0.24208  0.89197  0.26850  1.0000
  O   O439      1.0  0.24208  0.80803  0.26850  1.0000
  O   O440      1.0  0.35792  0.90803  0.34377  1.0000
  O   O441      1.0  0.25792  0.99197  0.33332  1.0000
  O   O442      1.0  0.34208  0.89197  0.27895  1.0000
  O   O443      1.0  0.34208  0.80803  0.27895  1.0000
  O   O444      1.0  0.25792  0.90803  0.33332  1.0000
  Ca  Ca149     1.0  0.30848  0.95000  0.43695  1.0000
  Ca  Ca150     1.0  0.29152  0.85000  0.43459  1.0000
  Ca  Ca151     1.0  0.20848  0.95000  0.49941  1.0000
  Ca  Ca152     1.0  0.39152  0.85000  0.37213  1.0000
  Ti  Ti149     1.0  0.30000  0.90000  0.37095  1.0000
  Ti  Ti150     1.0  0.30000  0.80000  0.37095  1.0000
  Ti  Ti151     1.0  0.20000  0.90000  0.43577  1.0000
  Ti  Ti152     1.0  0.20000  0.80000  0.43577  1.0000
  O   O445      1.0  0.29627  0.95000  0.38091  1.0000
  O   O446      1.0  0.30373  0.85000  0.49063  1.0000
  O   O447      1.0  0.39627  0.95000  0.42582  1.0000
  O   O448      1.0  0.20373  0.85000  0.44572  1.0000
  O   O449      1.0  0.35792  0.99197  0.47340  1.0000
  O   O450      1.0  0.24208  0.89197  0.39814  1.0000
  O   O451      1.0  0.24208  0.80803  0.39814  1.0000
  O   O452      1.0  0.35792  0.90803  0.47340  1.0000
  O   O453      1.0  0.25792  0.99197  0.46296  1.0000
  O   O454      1.0  0.34208  0.89197  0.40858  1.0000
  O   O455      1.0  0.34208  0.80803  0.40858  1.0000
  O   O456      1.0  0.25792  0.90803  0.46296  1.0000
  Ca  Ca153     1.0  0.30848  0.95000  0.56658  1.0000
  Ca  Ca154     1.0  0.29152  0.85000  0.56423  1.0000
  Ca  Ca155     1.0  0.20848  0.95000  0.62905  1.0000
  Ca  Ca156     1.0  0.39152  0.85000  0.50176  1.0000
  Ti  Ti153     1.0  0.30000  0.90000  0.50059  1.0000
  Ti  Ti154     1.0  0.30000  0.80000  0.50059  1.0000
  Ti  Ti155     1.0  0.20000  0.90000  0.56541  1.0000
  Ti  Ti156     1.0  0.20000  0.80000  0.56541  1.0000
  O   O457      1.0  0.29627  0.95000  0.51054  1.0000
  O   O458      1.0  0.30373  0.85000  0.62027  1.0000
  O   O459      1.0  0.39627  0.95000  0.55545  1.0000
  O   O460      1.0  0.20373  0.85000  0.57536  1.0000
  O   O461      1.0  0.35792  0.99197  0.60304  1.0000
  O   O462      1.0  0.24208  0.89197  0.52777  1.0000
  O   O463      1.0  0.24208  0.80803  0.52777  1.0000
  O   O464      1.0  0.35792  0.90803  0.60304  1.0000
  O   O465      1.0  0.25792  0.99197  0.59259  1.0000
  O   O466      1.0  0.34208  0.89197  0.53822  1.0000
  O   O467      1.0  0.34208  0.80803  0.53822  1.0000
  O   O468      1.0  0.25792  0.90803  0.59259  1.0000
  Ca  Ca157     1.0  0.30848  0.95000  0.69622  1.0000
  Ca  Ca158     1.0  0.29152  0.85000  0.69387  1.0000
  Ca  Ca159     1.0  0.20848  0.95000  0.75868  1.0000
  Ca  Ca160     1.0  0.39152  0.85000  0.63140  1.0000
  Ti  Ti157     1.0  0.30000  0.90000  0.63022  1.0000
  Ti  Ti158     1.0  0.30000  0.80000  0.63022  1.0000
  Ti  Ti159     1.0  0.20000  0.90000  0.69504  1.0000
  Ti  Ti160     1.0  0.20000  0.80000  0.69504  1.0000
  O   O469      1.0  0.29627  0.95000  0.64018  1.0000
  O   O470      1.0  0.30373  0.85000  0.74991  1.0000
  O   O471      1.0  0.39627  0.95000  0.68509  1.0000
  O   O472      1.0  0.20373  0.85000  0.70500  1.0000
  O   O473      1.0  0.35792  0.99197  0.73267  1.0000
  O   O474      1.0  0.24208  0.89197  0.65741  1.0000
  O   O475      1.0  0.24208  0.80803  0.65741  1.0000
  O   O476      1.0  0.35792  0.90803  0.73267  1.0000
  O   O477      1.0  0.25792  0.99197  0.72223  1.0000
  O   O478      1.0  0.34208  0.89197  0.66786  1.0000
  O   O479      1.0  0.34208  0.80803  0.66786  1.0000
  O   O480      1.0  0.25792  0.90803  0.72223  1.0000
  Ca  Ca161     1.0  0.50848  0.15000  0.30731  1.0000
  Ca  Ca162     1.0  0.49152  0.05000  0.30496  1.0000
  Ca  Ca163     1.0  0.40848  0.15000  0.36978  1.0000
  Ca  Ca164     1.0  0.59152  0.05000  0.24249  1.0000
  Ti  Ti161     1.0  0.50000  0.10000  0.24132  1.0000
  Ti  Ti162     1.0  0.50000  0.00000  0.24132  1.0000
  Ti  Ti163     1.0  0.40000  0.10000  0.30613  1.0000
  Ti  Ti164     1.0  0.40000  0.00000  0.30613  1.0000
  O   O481      1.0  0.49627  0.15000  0.25127  1.0000
  O   O482      1.0  0.50373  0.05000  0.36100  1.0000
  O   O483      1.0  0.59627  0.15000  0.29618  1.0000
  O   O484      1.0  0.40373  0.05000  0.31609  1.0000
  O   O485      1.0  0.55792  0.19197  0.34377  1.0000
  O   O486      1.0  0.44208  0.09197  0.26850  1.0000
  O   O487      1.0  0.44208  0.00803  0.26850  1.0000
  O   O488      1.0  0.55792  0.10803  0.34377  1.0000
  O   O489      1.0  0.45792  0.19197  0.33332  1.0000
  O   O490      1.0  0.54208  0.09197  0.27895  1.0000
  O   O491      1.0  0.54208  0.00803  0.27895  1.0000
  O   O492      1.0  0.45792  0.10803  0.33332  1.0000
  Ca  Ca165     1.0  0.50848  0.15000  0.43695  1.0000
  Ca  Ca166     1.0  0.49152  0.05000  0.43459  1.0000
  Ca  Ca167     1.0  0.40848  0.15000  0.49941  1.0000
  Ca  Ca168     1.0  0.59152  0.05000  0.37213  1.0000
  Ti  Ti165     1.0  0.50000  0.10000  0.37095  1.0000
  Ti  Ti166     1.0  0.50000  0.00000  0.37095  1.0000
  Ti  Ti167     1.0  0.40000  0.10000  0.43577  1.0000
  Ti  Ti168     1.0  0.40000  0.00000  0.43577  1.0000
  O   O493      1.0  0.49627  0.15000  0.38091  1.0000
  O   O494      1.0  0.50373  0.05000  0.49063  1.0000
  O   O495      1.0  0.59627  0.15000  0.42582  1.0000
  O   O496      1.0  0.40373  0.05000  0.44572  1.0000
  O   O497      1.0  0.55792  0.19197  0.47340  1.0000
  O   O498      1.0  0.44208  0.09197  0.39814  1.0000
  O   O499      1.0  0.44208  0.00803  0.39814  1.0000
  O   O500      1.0  0.55792  0.10803  0.47340  1.0000
  O   O501      1.0  0.45792  0.19197  0.46296  1.0000
  O   O502      1.0  0.54208  0.09197  0.40858  1.0000
  O   O503      1.0  0.54208  0.00803  0.40858  1.0000
  O   O504      1.0  0.45792  0.10803  0.46296  1.0000
  Ca  Ca169     1.0  0.50848  0.15000  0.56658  1.0000
  Ca  Ca170     1.0  0.49152  0.05000  0.56423  1.0000
  Ca  Ca171     1.0  0.40848  0.15000  0.62905  1.0000
  Ca  Ca172     1.0  0.59152  0.05000  0.50176  1.0000
  Ti  Ti169     1.0  0.50000  0.10000  0.50059  1.0000
  Ti  Ti170     1.0  0.50000  0.00000  0.50059  1.0000
  Ti  Ti171     1.0  0.40000  0.10000  0.56541  1.0000
  Ti  Ti172     1.0  0.40000  0.00000  0.56541  1.0000
  O   O505      1.0  0.49627  0.15000  0.51054  1.0000
  O   O506      1.0  0.50373  0.05000  0.62027  1.0000
  O   O507      1.0  0.59627  0.15000  0.55545  1.0000
  O   O508      1.0  0.40373  0.05000  0.57536  1.0000
  O   O509      1.0  0.55792  0.19197  0.60304  1.0000
  O   O510      1.0  0.44208  0.09197  0.52777  1.0000
  O   O511      1.0  0.44208  0.00803  0.52777  1.0000
  O   O512      1.0  0.55792  0.10803  0.60304  1.0000
  O   O513      1.0  0.45792  0.19197  0.59259  1.0000
  O   O514      1.0  0.54208  0.09197  0.53822  1.0000
  O   O515      1.0  0.54208  0.00803  0.53822  1.0000
  O   O516      1.0  0.45792  0.10803  0.59259  1.0000
  Ca  Ca173     1.0  0.50848  0.15000  0.69622  1.0000
  Ca  Ca174     1.0  0.49152  0.05000  0.69387  1.0000
  Ca  Ca175     1.0  0.40848  0.15000  0.75868  1.0000
  Ca  Ca176     1.0  0.59152  0.05000  0.63140  1.0000
  Ti  Ti173     1.0  0.50000  0.10000  0.63022  1.0000
  Ti  Ti174     1.0  0.50000  0.00000  0.63022  1.0000
  Ti  Ti175     1.0  0.40000  0.10000  0.69504  1.0000
  Ti  Ti176     1.0  0.40000  0.00000  0.69504  1.0000
  O   O517      1.0  0.49627  0.15000  0.64018  1.0000
  O   O518      1.0  0.50373  0.05000  0.74991  1.0000
  O   O519      1.0  0.59627  0.15000  0.68509  1.0000
  O   O520      1.0  0.40373  0.05000  0.70500  1.0000
  O   O521      1.0  0.55792  0.19197  0.73267  1.0000
  O   O522      1.0  0.44208  0.09197  0.65741  1.0000
  O   O523      1.0  0.44208  0.00803  0.65741  1.0000
  O   O524      1.0  0.55792  0.10803  0.73267  1.0000
  O   O525      1.0  0.45792  0.19197  0.72223  1.0000
  O   O526      1.0  0.54208  0.09197  0.66786  1.0000
  O   O527      1.0  0.54208  0.00803  0.66786  1.0000
  O   O528      1.0  0.45792  0.10803  0.72223  1.0000
  Ca  Ca177     1.0  0.50848  0.35000  0.30731  1.0000
  Ca  Ca178     1.0  0.49152  0.25000  0.30496  1.0000
  Ca  Ca179     1.0  0.40848  0.35000  0.36978  1.0000
  Ca  Ca180     1.0  0.59152  0.25000  0.24249  1.0000
  Ti  Ti177     1.0  0.50000  0.30000  0.24132  1.0000
  Ti  Ti178     1.0  0.50000  0.20000  0.24132  1.0000
  Ti  Ti179     1.0  0.40000  0.30000  0.30613  1.0000
  Ti  Ti180     1.0  0.40000  0.20000  0.30613  1.0000
  O   O529      1.0  0.49627  0.35000  0.25127  1.0000
  O   O530      1.0  0.50373  0.25000  0.36100  1.0000
  O   O531      1.0  0.59627  0.35000  0.29618  1.0000
  O   O532      1.0  0.40373  0.25000  0.31609  1.0000
  O   O533      1.0  0.55792  0.39197  0.34377  1.0000
  O   O534      1.0  0.44208  0.29197  0.26850  1.0000
  O   O535      1.0  0.44208  0.20803  0.26850  1.0000
  O   O536      1.0  0.55792  0.30803  0.34377  1.0000
  O   O537      1.0  0.45792  0.39197  0.33332  1.0000
  O   O538      1.0  0.54208  0.29197  0.27895  1.0000
  O   O539      1.0  0.54208  0.20803  0.27895  1.0000
  O   O540      1.0  0.45792  0.30803  0.33332  1.0000
  Ca  Ca181     1.0  0.50848  0.35000  0.43695  1.0000
  Ca  Ca182     1.0  0.49152  0.25000  0.43459  1.0000
  Ca  Ca183     1.0  0.40848  0.35000  0.49941  1.0000
  Ca  Ca184     1.0  0.59152  0.25000  0.37213  1.0000
  Ti  Ti181     1.0  0.50000  0.30000  0.37095  1.0000
  Ti  Ti182     1.0  0.50000  0.20000  0.37095  1.0000
  Ti  Ti183     1.0  0.40000  0.30000  0.43577  1.0000
  Ti  Ti184     1.0  0.40000  0.20000  0.43577  1.0000
  O   O541      1.0  0.49627  0.35000  0.38091  1.0000
  O   O542      1.0  0.50373  0.25000  0.49063  1.0000
  O   O543      1.0  0.59627  0.35000  0.42582  1.0000
  O   O544      1.0  0.40373  0.25000  0.44572  1.0000
  O   O545      1.0  0.55792  0.39197  0.47340  1.0000
  O   O546      1.0  0.44208  0.29197  0.39814  1.0000
  O   O547      1.0  0.44208  0.20803  0.39814  1.0000
  O   O548      1.0  0.55792  0.30803  0.47340  1.0000
  O   O549      1.0  0.45792  0.39197  0.46296  1.0000
  O   O550      1.0  0.54208  0.29197  0.40858  1.0000
  O   O551      1.0  0.54208  0.20803  0.40858  1.0000
  O   O552      1.0  0.45792  0.30803  0.46296  1.0000
  Ca  Ca185     1.0  0.50848  0.35000  0.56658  1.0000
  Ca  Ca186     1.0  0.49152  0.25000  0.56423  1.0000
  Ca  Ca187     1.0  0.40848  0.35000  0.62905  1.0000
  Ca  Ca188     1.0  0.59152  0.25000  0.50176  1.0000
  Ti  Ti185     1.0  0.50000  0.30000  0.50059  1.0000
  Ti  Ti186     1.0  0.50000  0.20000  0.50059  1.0000
  Ti  Ti187     1.0  0.40000  0.30000  0.56541  1.0000
  Ti  Ti188     1.0  0.40000  0.20000  0.56541  1.0000
  O   O553      1.0  0.49627  0.35000  0.51054  1.0000
  O   O554      1.0  0.50373  0.25000  0.62027  1.0000
  O   O555      1.0  0.59627  0.35000  0.55545  1.0000
  O   O556      1.0  0.40373  0.25000  0.57536  1.0000
  O   O557      1.0  0.55792  0.39197  0.60304  1.0000
  O   O558      1.0  0.44208  0.29197  0.52777  1.0000
  O   O559      1.0  0.44208  0.20803  0.52777  1.0000
  O   O560      1.0  0.55792  0.30803  0.60304  1.0000
  O   O561      1.0  0.45792  0.39197  0.59259  1.0000
  O   O562      1.0  0.54208  0.29197  0.53822  1.0000
  O   O563      1.0  0.54208  0.20803  0.53822  1.0000
  O   O564      1.0  0.45792  0.30803  0.59259  1.0000
  Ca  Ca189     1.0  0.50848  0.35000  0.69622  1.0000
  Ca  Ca190     1.0  0.49152  0.25000  0.69387  1.0000
  Ca  Ca191     1.0  0.40848  0.35000  0.75868  1.0000
  Ca  Ca192     1.0  0.59152  0.25000  0.63140  1.0000
  Ti  Ti189     1.0  0.50000  0.30000  0.63022  1.0000
  Ti  Ti190     1.0  0.50000  0.20000  0.63022  1.0000
  Ti  Ti191     1.0  0.40000  0.30000  0.69504  1.0000
  Ti  Ti192     1.0  0.40000  0.20000  0.69504  1.0000
  O   O565      1.0  0.49627  0.35000  0.64018  1.0000
  O   O566      1.0  0.50373  0.25000  0.74991  1.0000
  O   O567      1.0  0.59627  0.35000  0.68509  1.0000
  O   O568      1.0  0.40373  0.25000  0.70500  1.0000
  O   O569      1.0  0.55792  0.39197  0.73267  1.0000
  O   O570      1.0  0.44208  0.29197  0.65741  1.0000
  O   O571      1.0  0.44208  0.20803  0.65741  1.0000
  O   O572      1.0  0.55792  0.30803  0.73267  1.0000
  O   O573      1.0  0.45792  0.39197  0.72223  1.0000
  O   O574      1.0  0.54208  0.29197  0.66786  1.0000
  O   O575      1.0  0.54208  0.20803  0.66786  1.0000
  O   O576      1.0  0.45792  0.30803  0.72223  1.0000
  Ca  Ca193     1.0  0.50848  0.55000  0.30731  1.0000
  Ca  Ca194     1.0  0.49152  0.45000  0.30496  1.0000
  Ca  Ca195     1.0  0.40848  0.55000  0.36978  1.0000
  Ca  Ca196     1.0  0.59152  0.45000  0.24249  1.0000
  Ti  Ti193     1.0  0.50000  0.50000  0.24132  1.0000
  Ti  Ti194     1.0  0.50000  0.40000  0.24132  1.0000
  Ti  Ti195     1.0  0.40000  0.50000  0.30613  1.0000
  Ti  Ti196     1.0  0.40000  0.40000  0.30613  1.0000
  O   O577      1.0  0.49627  0.55000  0.25127  1.0000
  O   O578      1.0  0.50373  0.45000  0.36100  1.0000
  O   O579      1.0  0.59627  0.55000  0.29618  1.0000
  O   O580      1.0  0.40373  0.45000  0.31609  1.0000
  O   O581      1.0  0.55792  0.59197  0.34377  1.0000
  O   O582      1.0  0.44208  0.49197  0.26850  1.0000
  O   O583      1.0  0.44208  0.40803  0.26850  1.0000
  O   O584      1.0  0.55792  0.50803  0.34377  1.0000
  O   O585      1.0  0.45792  0.59197  0.33332  1.0000
  O   O586      1.0  0.54208  0.49197  0.27895  1.0000
  O   O587      1.0  0.54208  0.40803  0.27895  1.0000
  O   O588      1.0  0.45792  0.50803  0.33332  1.0000
  Ca  Ca197     1.0  0.50848  0.55000  0.43695  1.0000
  Ca  Ca198     1.0  0.49152  0.45000  0.43459  1.0000
  Ca  Ca199     1.0  0.40848  0.55000  0.49941  1.0000
  Ca  Ca200     1.0  0.59152  0.45000  0.37213  1.0000
  Ti  Ti197     1.0  0.50000  0.50000  0.37095  1.0000
  Ti  Ti198     1.0  0.50000  0.40000  0.37095  1.0000
  Ti  Ti199     1.0  0.40000  0.50000  0.43577  1.0000
  Ti  Ti200     1.0  0.40000  0.40000  0.43577  1.0000
  O   O589      1.0  0.49627  0.55000  0.38091  1.0000
  O   O590      1.0  0.50373  0.45000  0.49063  1.0000
  O   O591      1.0  0.59627  0.55000  0.42582  1.0000
  O   O592      1.0  0.40373  0.45000  0.44572  1.0000
  O   O593      1.0  0.55792  0.59197  0.47340  1.0000
  O   O594      1.0  0.44208  0.49197  0.39814  1.0000
  O   O595      1.0  0.44208  0.40803  0.39814  1.0000
  O   O596      1.0  0.55792  0.50803  0.47340  1.0000
  O   O597      1.0  0.45792  0.59197  0.46296  1.0000
  O   O598      1.0  0.54208  0.49197  0.40858  1.0000
  O   O599      1.0  0.54208  0.40803  0.40858  1.0000
  O   O600      1.0  0.45792  0.50803  0.46296  1.0000
  Ca  Ca201     1.0  0.50848  0.55000  0.56658  1.0000
  Ca  Ca202     1.0  0.49152  0.45000  0.56423  1.0000
  Ca  Ca203     1.0  0.40848  0.55000  0.62905  1.0000
  Ca  Ca204     1.0  0.59152  0.45000  0.50176  1.0000
  Ti  Ti201     1.0  0.50000  0.50000  0.50059  1.0000
  Ti  Ti202     1.0  0.50000  0.40000  0.50059  1.0000
  Ti  Ti203     1.0  0.40000  0.50000  0.56541  1.0000
  Ti  Ti204     1.0  0.40000  0.40000  0.56541  1.0000
  O   O601      1.0  0.49627  0.55000  0.51054  1.0000
  O   O602      1.0  0.50373  0.45000  0.62027  1.0000
  O   O603      1.0  0.59627  0.55000  0.55545  1.0000
  O   O604      1.0  0.40373  0.45000  0.57536  1.0000
  O   O605      1.0  0.55792  0.59197  0.60304  1.0000
  O   O606      1.0  0.44208  0.49197  0.52777  1.0000
  O   O607      1.0  0.44208  0.40803  0.52777  1.0000
  O   O608      1.0  0.55792  0.50803  0.60304  1.0000
  O   O609      1.0  0.45792  0.59197  0.59259  1.0000
  O   O610      1.0  0.54208  0.49197  0.53822  1.0000
  O   O611      1.0  0.54208  0.40803  0.53822  1.0000
  O   O612      1.0  0.45792  0.50803  0.59259  1.0000
  Ca  Ca205     1.0  0.50848  0.55000  0.69622  1.0000
  Ca  Ca206     1.0  0.49152  0.45000  0.69387  1.0000
  Ca  Ca207     1.0  0.40848  0.55000  0.75868  1.0000
  Ca  Ca208     1.0  0.59152  0.45000  0.63140  1.0000
  Ti  Ti205     1.0  0.50000  0.50000  0.63022  1.0000
  Ti  Ti206     1.0  0.50000  0.40000  0.63022  1.0000
  Ti  Ti207     1.0  0.40000  0.50000  0.69504  1.0000
  Ti  Ti208     1.0  0.40000  0.40000  0.69504  1.0000
  O   O613      1.0  0.49627  0.55000  0.64018  1.0000
  O   O614      1.0  0.50373  0.45000  0.74991  1.0000
  O   O615      1.0  0.59627  0.55000  0.68509  1.0000
  O   O616      1.0  0.40373  0.45000  0.70500  1.0000
  O   O617      1.0  0.55792  0.59197  0.73267  1.0000
  O   O618      1.0  0.44208  0.49197  0.65741  1.0000
  O   O619      1.0  0.44208  0.40803  0.65741  1.0000
  O   O620      1.0  0.55792  0.50803  0.73267  1.0000
  O   O621      1.0  0.45792  0.59197  0.72223  1.0000
  O   O622      1.0  0.54208  0.49197  0.66786  1.0000
  O   O623      1.0  0.54208  0.40803  0.66786  1.0000
  O   O624      1.0  0.45792  0.50803  0.72223  1.0000
  Ca  Ca209     1.0  0.50848  0.75000  0.30731  1.0000
  Ca  Ca210     1.0  0.49152  0.65000  0.30496  1.0000
  Ca  Ca211     1.0  0.40848  0.75000  0.36978  1.0000
  Ca  Ca212     1.0  0.59152  0.65000  0.24249  1.0000
  Ti  Ti209     1.0  0.50000  0.70000  0.24132  1.0000
  Ti  Ti210     1.0  0.50000  0.60000  0.24132  1.0000
  Ti  Ti211     1.0  0.40000  0.70000  0.30613  1.0000
  Ti  Ti212     1.0  0.40000  0.60000  0.30613  1.0000
  O   O625      1.0  0.49627  0.75000  0.25127  1.0000
  O   O626      1.0  0.50373  0.65000  0.36100  1.0000
  O   O627      1.0  0.59627  0.75000  0.29618  1.0000
  O   O628      1.0  0.40373  0.65000  0.31609  1.0000
  O   O629      1.0  0.55792  0.79197  0.34377  1.0000
  O   O630      1.0  0.44208  0.69197  0.26850  1.0000
  O   O631      1.0  0.44208  0.60803  0.26850  1.0000
  O   O632      1.0  0.55792  0.70803  0.34377  1.0000
  O   O633      1.0  0.45792  0.79197  0.33332  1.0000
  O   O634      1.0  0.54208  0.69197  0.27895  1.0000
  O   O635      1.0  0.54208  0.60803  0.27895  1.0000
  O   O636      1.0  0.45792  0.70803  0.33332  1.0000
  Ca  Ca213     1.0  0.50848  0.75000  0.43695  1.0000
  Ca  Ca214     1.0  0.49152  0.65000  0.43459  1.0000
  Ca  Ca215     1.0  0.40848  0.75000  0.49941  1.0000
  Ca  Ca216     1.0  0.59152  0.65000  0.37213  1.0000
  Ti  Ti213     1.0  0.50000  0.70000  0.37095  1.0000
  Ti  Ti214     1.0  0.50000  0.60000  0.37095  1.0000
  Ti  Ti215     1.0  0.40000  0.70000  0.43577  1.0000
  Ti  Ti216     1.0  0.40000  0.60000  0.43577  1.0000
  O   O637      1.0  0.49627  0.75000  0.38091  1.0000
  O   O638      1.0  0.50373  0.65000  0.49063  1.0000
  O   O639      1.0  0.59627  0.75000  0.42582  1.0000
  O   O640      1.0  0.40373  0.65000  0.44572  1.0000
  O   O641      1.0  0.55792  0.79197  0.47340  1.0000
  O   O642      1.0  0.44208  0.69197  0.39814  1.0000
  O   O643      1.0  0.44208  0.60803  0.39814  1.0000
  O   O644      1.0  0.55792  0.70803  0.47340  1.0000
  O   O645      1.0  0.45792  0.79197  0.46296  1.0000
  O   O646      1.0  0.54208  0.69197  0.40858  1.0000
  O   O647      1.0  0.54208  0.60803  0.40858  1.0000
  O   O648      1.0  0.45792  0.70803  0.46296  1.0000
  Ca  Ca217     1.0  0.50848  0.75000  0.56658  1.0000
  Ca  Ca218     1.0  0.49152  0.65000  0.56423  1.0000
  Ca  Ca219     1.0  0.40848  0.75000  0.62905  1.0000
  Ca  Ca220     1.0  0.59152  0.65000  0.50176  1.0000
  Ti  Ti217     1.0  0.50000  0.70000  0.50059  1.0000
  Ti  Ti218     1.0  0.50000  0.60000  0.50059  1.0000
  Ti  Ti219     1.0  0.40000  0.70000  0.56541  1.0000
  Ti  Ti220     1.0  0.40000  0.60000  0.56541  1.0000
  O   O649      1.0  0.49627  0.75000  0.51054  1.0000
  O   O650      1.0  0.50373  0.65000  0.62027  1.0000
  O   O651      1.0  0.59627  0.75000  0.55545  1.0000
  O   O652      1.0  0.40373  0.65000  0.57536  1.0000
  O   O653      1.0  0.55792  0.79197  0.60304  1.0000
  O   O654      1.0  0.44208  0.69197  0.52777  1.0000
  O   O655      1.0  0.44208  0.60803  0.52777  1.0000
  O   O656      1.0  0.55792  0.70803  0.60304  1.0000
  O   O657      1.0  0.45792  0.79197  0.59259  1.0000
  O   O658      1.0  0.54208  0.69197  0.53822  1.0000
  O   O659      1.0  0.54208  0.60803  0.53822  1.0000
  O   O660      1.0  0.45792  0.70803  0.59259  1.0000
  Ca  Ca221     1.0  0.50848  0.75000  0.69622  1.0000
  Ca  Ca222     1.0  0.49152  0.65000  0.69387  1.0000
  Ca  Ca223     1.0  0.40848  0.75000  0.75868  1.0000
  Ca  Ca224     1.0  0.59152  0.65000  0.63140  1.0000
  Ti  Ti221     1.0  0.50000  0.70000  0.63022  1.0000
  Ti  Ti222     1.0  0.50000  0.60000  0.63022  1.0000
  Ti  Ti223     1.0  0.40000  0.70000  0.69504  1.0000
  Ti  Ti224     1.0  0.40000  0.60000  0.69504  1.0000
  O   O661      1.0  0.49627  0.75000  0.64018  1.0000
  O   O662      1.0  0.50373  0.65000  0.74991  1.0000
  O   O663      1.0  0.59627  0.75000  0.68509  1.0000
  O   O664      1.0  0.40373  0.65000  0.70500  1.0000
  O   O665      1.0  0.55792  0.79197  0.73267  1.0000
  O   O666      1.0  0.44208  0.69197  0.65741  1.0000
  O   O667      1.0  0.44208  0.60803  0.65741  1.0000
  O   O668      1.0  0.55792  0.70803  0.73267  1.0000
  O   O669      1.0  0.45792  0.79197  0.72223  1.0000
  O   O670      1.0  0.54208  0.69197  0.66786  1.0000
  O   O671      1.0  0.54208  0.60803  0.66786  1.0000
  O   O672      1.0  0.45792  0.70803  0.72223  1.0000
  Ca  Ca225     1.0  0.50848  0.95000  0.30731  1.0000
  Ca  Ca226     1.0  0.49152  0.85000  0.30496  1.0000
  Ca  Ca227     1.0  0.40848  0.95000  0.36978  1.0000
  Ca  Ca228     1.0  0.59152  0.85000  0.24249  1.0000
  Ti  Ti225     1.0  0.50000  0.90000  0.24132  1.0000
  Ti  Ti226     1.0  0.50000  0.80000  0.24132  1.0000
  Ti  Ti227     1.0  0.40000  0.90000  0.30613  1.0000
  Ti  Ti228     1.0  0.40000  0.80000  0.30613  1.0000
  O   O673      1.0  0.49627  0.95000  0.25127  1.0000
  O   O674      1.0  0.50373  0.85000  0.36100  1.0000
  O   O675      1.0  0.59627  0.95000  0.29618  1.0000
  O   O676      1.0  0.40373  0.85000  0.31609  1.0000
  O   O677      1.0  0.55792  0.99197  0.34377  1.0000
  O   O678      1.0  0.44208  0.89197  0.26850  1.0000
  O   O679      1.0  0.44208  0.80803  0.26850  1.0000
  O   O680      1.0  0.55792  0.90803  0.34377  1.0000
  O   O681      1.0  0.45792  0.99197  0.33332  1.0000
  O   O682      1.0  0.54208  0.89197  0.27895  1.0000
  O   O683      1.0  0.54208  0.80803  0.27895  1.0000
  O   O684      1.0  0.45792  0.90803  0.33332  1.0000
  Ca  Ca229     1.0  0.50848  0.95000  0.43695  1.0000
  Ca  Ca230     1.0  0.49152  0.85000  0.43459  1.0000
  Ca  Ca231     1.0  0.40848  0.95000  0.49941  1.0000
  Ca  Ca232     1.0  0.59152  0.85000  0.37213  1.0000
  Ti  Ti229     1.0  0.50000  0.90000  0.37095  1.0000
  Ti  Ti230     1.0  0.50000  0.80000  0.37095  1.0000
  Ti  Ti231     1.0  0.40000  0.90000  0.43577  1.0000
  Ti  Ti232     1.0  0.40000  0.80000  0.43577  1.0000
  O   O685      1.0  0.49627  0.95000  0.38091  1.0000
  O   O686      1.0  0.50373  0.85000  0.49063  1.0000
  O   O687      1.0  0.59627  0.95000  0.42582  1.0000
  O   O688      1.0  0.40373  0.85000  0.44572  1.0000
  O   O689      1.0  0.55792  0.99197  0.47340  1.0000
  O   O690      1.0  0.44208  0.89197  0.39814  1.0000
  O   O691      1.0  0.44208  0.80803  0.39814  1.0000
  O   O692      1.0  0.55792  0.90803  0.47340  1.0000
  O   O693      1.0  0.45792  0.99197  0.46296  1.0000
  O   O694      1.0  0.54208  0.89197  0.40858  1.0000
  O   O695      1.0  0.54208  0.80803  0.40858  1.0000
  O   O696      1.0  0.45792  0.90803  0.46296  1.0000
  Ca  Ca233     1.0  0.50848  0.95000  0.56658  1.0000
  Ca  Ca234     1.0  0.49152  0.85000  0.56423  1.0000
  Ca  Ca235     1.0  0.40848  0.95000  0.62905  1.0000
  Ca  Ca236     1.0  0.59152  0.85000  0.50176  1.0000
  Ti  Ti233     1.0  0.50000  0.90000  0.50059  1.0000
  Ti  Ti234     1.0  0.50000  0.80000  0.50059  1.0000
  Ti  Ti235     1.0  0.40000  0.90000  0.56541  1.0000
  Ti  Ti236     1.0  0.40000  0.80000  0.56541  1.0000
  O   O697      1.0  0.49627  0.95000  0.51054  1.0000
  O   O698      1.0  0.50373  0.85000  0.62027  1.0000
  O   O699      1.0  0.59627  0.95000  0.55545  1.0000
  O   O700      1.0  0.40373  0.85000  0.57536  1.0000
  O   O701      1.0  0.55792  0.99197  0.60304  1.0000
  O   O702      1.0  0.44208  0.89197  0.52777  1.0000
  O   O703      1.0  0.44208  0.80803  0.52777  1.0000
  O   O704      1.0  0.55792  0.90803  0.60304  1.0000
  O   O705      1.0  0.45792  0.99197  0.59259  1.0000
  O   O706      1.0  0.54208  0.89197  0.53822  1.0000
  O   O707      1.0  0.54208  0.80803  0.53822  1.0000
  O   O708      1.0  0.45792  0.90803  0.59259  1.0000
  Ca  Ca237     1.0  0.50848  0.95000  0.69622  1.0000
  Ca  Ca238     1.0  0.49152  0.85000  0.69387  1.0000
  Ca  Ca239     1.0  0.40848  0.95000  0.75868  1.0000
  Ca  Ca240     1.0  0.59152  0.85000  0.63140  1.0000
  Ti  Ti237     1.0  0.50000  0.90000  0.63022  1.0000
  Ti  Ti238     1.0  0.50000  0.80000  0.63022  1.0000
  Ti  Ti239     1.0  0.40000  0.90000  0.69504  1.0000
  Ti  Ti240     1.0  0.40000  0.80000  0.69504  1.0000
  O   O709      1.0  0.49627  0.95000  0.64018  1.0000
  O   O710      1.0  0.50373  0.85000  0.74991  1.0000
  O   O711      1.0  0.59627  0.95000  0.68509  1.0000
  O   O712      1.0  0.40373  0.85000  0.70500  1.0000
  O   O713      1.0  0.55792  0.99197  0.73267  1.0000
  O   O714      1.0  0.44208  0.89197  0.65741  1.0000
  O   O715      1.0  0.44208  0.80803  0.65741  1.0000
  O   O716      1.0  0.55792  0.90803  0.73267  1.0000
  O   O717      1.0  0.45792  0.99197  0.72223  1.0000
  O   O718      1.0  0.54208  0.89197  0.66786  1.0000
  O   O719      1.0  0.54208  0.80803  0.66786  1.0000
  O   O720      1.0  0.45792  0.90803  0.72223  1.0000
  Ca  Ca241     1.0  0.70848  0.15000  0.30731  1.0000
  Ca  Ca242     1.0  0.69152  0.05000  0.30496  1.0000
  Ca  Ca243     1.0  0.60848  0.15000  0.36978  1.0000
  Ca  Ca244     1.0  0.79152  0.05000  0.24249  1.0000
  Ti  Ti241     1.0  0.70000  0.10000  0.24132  1.0000
  Ti  Ti242     1.0  0.70000  0.00000  0.24132  1.0000
  Ti  Ti243     1.0  0.60000  0.10000  0.30613  1.0000
  Ti  Ti244     1.0  0.60000  0.00000  0.30613  1.0000
  O   O721      1.0  0.69627  0.15000  0.25127  1.0000
  O   O722      1.0  0.70373  0.05000  0.36100  1.0000
  O   O723      1.0  0.79627  0.15000  0.29618  1.0000
  O   O724      1.0  0.60373  0.05000  0.31609  1.0000
  O   O725      1.0  0.75792  0.19197  0.34377  1.0000
  O   O726      1.0  0.64208  0.09197  0.26850  1.0000
  O   O727      1.0  0.64208  0.00803  0.26850  1.0000
  O   O728      1.0  0.75792  0.10803  0.34377  1.0000
  O   O729      1.0  0.65792  0.19197  0.33332  1.0000
  O   O730      1.0  0.74208  0.09197  0.27895  1.0000
  O   O731      1.0  0.74208  0.00803  0.27895  1.0000
  O   O732      1.0  0.65792  0.10803  0.33332  1.0000
  Ca  Ca245     1.0  0.70848  0.15000  0.43695  1.0000
  Ca  Ca246     1.0  0.69152  0.05000  0.43459  1.0000
  Ca  Ca247     1.0  0.60848  0.15000  0.49941  1.0000
  Ca  Ca248     1.0  0.79152  0.05000  0.37213  1.0000
  Ti  Ti245     1.0  0.70000  0.10000  0.37095  1.0000
  Ti  Ti246     1.0  0.70000  0.00000  0.37095  1.0000
  Ti  Ti247     1.0  0.60000  0.10000  0.43577  1.0000
  Ti  Ti248     1.0  0.60000  0.00000  0.43577  1.0000
  O   O733      1.0  0.69627  0.15000  0.38091  1.0000
  O   O734      1.0  0.70373  0.05000  0.49063  1.0000
  O   O735      1.0  0.79627  0.15000  0.42582  1.0000
  O   O736      1.0  0.60373  0.05000  0.44572  1.0000
  O   O737      1.0  0.75792  0.19197  0.47340  1.0000
  O   O738      1.0  0.64208  0.09197  0.39814  1.0000
  O   O739      1.0  0.64208  0.00803  0.39814  1.0000
  O   O740      1.0  0.75792  0.10803  0.47340  1.0000
  O   O741      1.0  0.65792  0.19197  0.46296  1.0000
  O   O742      1.0  0.74208  0.09197  0.40858  1.0000
  O   O743      1.0  0.74208  0.00803  0.40858  1.0000
  O   O744      1.0  0.65792  0.10803  0.46296  1.0000
  Ca  Ca249     1.0  0.70848  0.15000  0.56658  1.0000
  Ca  Ca250     1.0  0.69152  0.05000  0.56423  1.0000
  Ca  Ca251     1.0  0.60848  0.15000  0.62905  1.0000
  Ca  Ca252     1.0  0.79152  0.05000  0.50176  1.0000
  Ti  Ti249     1.0  0.70000  0.10000  0.50059  1.0000
  Ti  Ti250     1.0  0.70000  0.00000  0.50059  1.0000
  Ti  Ti251     1.0  0.60000  0.10000  0.56541  1.0000
  Ti  Ti252     1.0  0.60000  0.00000  0.56541  1.0000
  O   O745      1.0  0.69627  0.15000  0.51054  1.0000
  O   O746      1.0  0.70373  0.05000  0.62027  1.0000
  O   O747      1.0  0.79627  0.15000  0.55545  1.0000
  O   O748      1.0  0.60373  0.05000  0.57536  1.0000
  O   O749      1.0  0.75792  0.19197  0.60304  1.0000
  O   O750      1.0  0.64208  0.09197  0.52777  1.0000
  O   O751      1.0  0.64208  0.00803  0.52777  1.0000
  O   O752      1.0  0.75792  0.10803  0.60304  1.0000
  O   O753      1.0  0.65792  0.19197  0.59259  1.0000
  O   O754      1.0  0.74208  0.09197  0.53822  1.0000
  O   O755      1.0  0.74208  0.00803  0.53822  1.0000
  O   O756      1.0  0.65792  0.10803  0.59259  1.0000
  Ca  Ca253     1.0  0.70848  0.15000  0.69622  1.0000
  Ca  Ca254     1.0  0.69152  0.05000  0.69387  1.0000
  Ca  Ca255     1.0  0.60848  0.15000  0.75868  1.0000
  Ca  Ca256     1.0  0.79152  0.05000  0.63140  1.0000
  Ti  Ti253     1.0  0.70000  0.10000  0.63022  1.0000
  Ti  Ti254     1.0  0.70000  0.00000  0.63022  1.0000
  Ti  Ti255     1.0  0.60000  0.10000  0.69504  1.0000
  Ti  Ti256     1.0  0.60000  0.00000  0.69504  1.0000
  O   O757      1.0  0.69627  0.15000  0.64018  1.0000
  O   O758      1.0  0.70373  0.05000  0.74991  1.0000
  O   O759      1.0  0.79627  0.15000  0.68509  1.0000
  O   O760      1.0  0.60373  0.05000  0.70500  1.0000
  O   O761      1.0  0.75792  0.19197  0.73267  1.0000
  O   O762      1.0  0.64208  0.09197  0.65741  1.0000
  O   O763      1.0  0.64208  0.00803  0.65741  1.0000
  O   O764      1.0  0.75792  0.10803  0.73267  1.0000
  O   O765      1.0  0.65792  0.19197  0.72223  1.0000
  O   O766      1.0  0.74208  0.09197  0.66786  1.0000
  O   O767      1.0  0.74208  0.00803  0.66786  1.0000
  O   O768      1.0  0.65792  0.10803  0.72223  1.0000
  Ca  Ca257     1.0  0.70848  0.35000  0.30731  1.0000
  Ca  Ca258     1.0  0.69152  0.25000  0.30496  1.0000
  Ca  Ca259     1.0  0.60848  0.35000  0.36978  1.0000
  Ca  Ca260     1.0  0.79152  0.25000  0.24249  1.0000
  Ti  Ti257     1.0  0.70000  0.30000  0.24132  1.0000
  Ti  Ti258     1.0  0.70000  0.20000  0.24132  1.0000
  Ti  Ti259     1.0  0.60000  0.30000  0.30613  1.0000
  Ti  Ti260     1.0  0.60000  0.20000  0.30613  1.0000
  O   O769      1.0  0.69627  0.35000  0.25127  1.0000
  O   O770      1.0  0.70373  0.25000  0.36100  1.0000
  O   O771      1.0  0.79627  0.35000  0.29618  1.0000
  O   O772      1.0  0.60373  0.25000  0.31609  1.0000
  O   O773      1.0  0.75792  0.39197  0.34377  1.0000
  O   O774      1.0  0.64208  0.29197  0.26850  1.0000
  O   O775      1.0  0.64208  0.20803  0.26850  1.0000
  O   O776      1.0  0.75792  0.30803  0.34377  1.0000
  O   O777      1.0  0.65792  0.39197  0.33332  1.0000
  O   O778      1.0  0.74208  0.29197  0.27895  1.0000
  O   O779      1.0  0.74208  0.20803  0.27895  1.0000
  O   O780      1.0  0.65792  0.30803  0.33332  1.0000
  Ca  Ca261     1.0  0.70848  0.35000  0.43695  1.0000
  Ca  Ca262     1.0  0.69152  0.25000  0.43459  1.0000
  Ca  Ca263     1.0  0.60848  0.35000  0.49941  1.0000
  Ca  Ca264     1.0  0.79152  0.25000  0.37213  1.0000
  Ti  Ti261     1.0  0.70000  0.30000  0.37095  1.0000
  Ti  Ti262     1.0  0.70000  0.20000  0.37095  1.0000
  Ti  Ti263     1.0  0.60000  0.30000  0.43577  1.0000
  Ti  Ti264     1.0  0.60000  0.20000  0.43577  1.0000
  O   O781      1.0  0.69627  0.35000  0.38091  1.0000
  O   O782      1.0  0.70373  0.25000  0.49063  1.0000
  O   O783      1.0  0.79627  0.35000  0.42582  1.0000
  O   O784      1.0  0.60373  0.25000  0.44572  1.0000
  O   O785      1.0  0.75792  0.39197  0.47340  1.0000
  O   O786      1.0  0.64208  0.29197  0.39814  1.0000
  O   O787      1.0  0.64208  0.20803  0.39814  1.0000
  O   O788      1.0  0.75792  0.30803  0.47340  1.0000
  O   O789      1.0  0.65792  0.39197  0.46296  1.0000
  O   O790      1.0  0.74208  0.29197  0.40858  1.0000
  O   O791      1.0  0.74208  0.20803  0.40858  1.0000
  O   O792      1.0  0.65792  0.30803  0.46296  1.0000
  Ca  Ca265     1.0  0.70848  0.35000  0.56658  1.0000
  Ca  Ca266     1.0  0.69152  0.25000  0.56423  1.0000
  Ca  Ca267     1.0  0.60848  0.35000  0.62905  1.0000
  Ca  Ca268     1.0  0.79152  0.25000  0.50176  1.0000
  Ti  Ti265     1.0  0.70000  0.30000  0.50059  1.0000
  Ti  Ti266     1.0  0.70000  0.20000  0.50059  1.0000
  Ti  Ti267     1.0  0.60000  0.30000  0.56541  1.0000
  Ti  Ti268     1.0  0.60000  0.20000  0.56541  1.0000
  O   O793      1.0  0.69627  0.35000  0.51054  1.0000
  O   O794      1.0  0.70373  0.25000  0.62027  1.0000
  O   O795      1.0  0.79627  0.35000  0.55545  1.0000
  O   O796      1.0  0.60373  0.25000  0.57536  1.0000
  O   O797      1.0  0.75792  0.39197  0.60304  1.0000
  O   O798      1.0  0.64208  0.29197  0.52777  1.0000
  O   O799      1.0  0.64208  0.20803  0.52777  1.0000
  O   O800      1.0  0.75792  0.30803  0.60304  1.0000
  O   O801      1.0  0.65792  0.39197  0.59259  1.0000
  O   O802      1.0  0.74208  0.29197  0.53822  1.0000
  O   O803      1.0  0.74208  0.20803  0.53822  1.0000
  O   O804      1.0  0.65792  0.30803  0.59259  1.0000
  Ca  Ca269     1.0  0.70848  0.35000  0.69622  1.0000
  Ca  Ca270     1.0  0.69152  0.25000  0.69387  1.0000
  Ca  Ca271     1.0  0.60848  0.35000  0.75868  1.0000
  Ca  Ca272     1.0  0.79152  0.25000  0.63140  1.0000
  Ti  Ti269     1.0  0.70000  0.30000  0.63022  1.0000
  Ti  Ti270     1.0  0.70000  0.20000  0.63022  1.0000
  Ti  Ti271     1.0  0.60000  0.30000  0.69504  1.0000
  Ti  Ti272     1.0  0.60000  0.20000  0.69504  1.0000
  O   O805      1.0  0.69627  0.35000  0.64018  1.0000
  O   O806      1.0  0.70373  0.25000  0.74991  1.0000
  O   O807      1.0  0.79627  0.35000  0.68509  1.0000
  O   O808      1.0  0.60373  0.25000  0.70500  1.0000
  O   O809      1.0  0.75792  0.39197  0.73267  1.0000
  O   O810      1.0  0.64208  0.29197  0.65741  1.0000
  O   O811      1.0  0.64208  0.20803  0.65741  1.0000
  O   O812      1.0  0.75792  0.30803  0.73267  1.0000
  O   O813      1.0  0.65792  0.39197  0.72223  1.0000
  O   O814      1.0  0.74208  0.29197  0.66786  1.0000
  O   O815      1.0  0.74208  0.20803  0.66786  1.0000
  O   O816      1.0  0.65792  0.30803  0.72223  1.0000
  Ca  Ca273     1.0  0.70848  0.55000  0.30731  1.0000
  Ca  Ca274     1.0  0.69152  0.45000  0.30496  1.0000
  Ca  Ca275     1.0  0.60848  0.55000  0.36978  1.0000
  Ca  Ca276     1.0  0.79152  0.45000  0.24249  1.0000
  Ti  Ti273     1.0  0.70000  0.50000  0.24132  1.0000
  Ti  Ti274     1.0  0.70000  0.40000  0.24132  1.0000
  Ti  Ti275     1.0  0.60000  0.50000  0.30613  1.0000
  Ti  Ti276     1.0  0.60000  0.40000  0.30613  1.0000
  O   O817      1.0  0.69627  0.55000  0.25127  1.0000
  O   O818      1.0  0.70373  0.45000  0.36100  1.0000
  O   O819      1.0  0.79627  0.55000  0.29618  1.0000
  O   O820      1.0  0.60373  0.45000  0.31609  1.0000
  O   O821      1.0  0.75792  0.59197  0.34377  1.0000
  O   O822      1.0  0.64208  0.49197  0.26850  1.0000
  O   O823      1.0  0.64208  0.40803  0.26850  1.0000
  O   O824      1.0  0.75792  0.50803  0.34377  1.0000
  O   O825      1.0  0.65792  0.59197  0.33332  1.0000
  O   O826      1.0  0.74208  0.49197  0.27895  1.0000
  O   O827      1.0  0.74208  0.40803  0.27895  1.0000
  O   O828      1.0  0.65792  0.50803  0.33332  1.0000
  Ca  Ca277     1.0  0.70848  0.55000  0.43695  1.0000
  Ca  Ca278     1.0  0.69152  0.45000  0.43459  1.0000
  Ca  Ca279     1.0  0.60848  0.55000  0.49941  1.0000
  Ca  Ca280     1.0  0.79152  0.45000  0.37213  1.0000
  Ti  Ti277     1.0  0.70000  0.50000  0.37095  1.0000
  Ti  Ti278     1.0  0.70000  0.40000  0.37095  1.0000
  Ti  Ti279     1.0  0.60000  0.50000  0.43577  1.0000
  Ti  Ti280     1.0  0.60000  0.40000  0.43577  1.0000
  O   O829      1.0  0.69627  0.55000  0.38091  1.0000
  O   O830      1.0  0.70373  0.45000  0.49063  1.0000
  O   O831      1.0  0.79627  0.55000  0.42582  1.0000
  O   O832      1.0  0.60373  0.45000  0.44572  1.0000
  O   O833      1.0  0.75792  0.59197  0.47340  1.0000
  O   O834      1.0  0.64208  0.49197  0.39814  1.0000
  O   O835      1.0  0.64208  0.40803  0.39814  1.0000
  O   O836      1.0  0.75792  0.50803  0.47340  1.0000
  O   O837      1.0  0.65792  0.59197  0.46296  1.0000
  O   O838      1.0  0.74208  0.49197  0.40858  1.0000
  O   O839      1.0  0.74208  0.40803  0.40858  1.0000
  O   O840      1.0  0.65792  0.50803  0.46296  1.0000
  Ca  Ca281     1.0  0.70848  0.55000  0.56658  1.0000
  Ca  Ca282     1.0  0.69152  0.45000  0.56423  1.0000
  Ca  Ca283     1.0  0.60848  0.55000  0.62905  1.0000
  Ca  Ca284     1.0  0.79152  0.45000  0.50176  1.0000
  Ti  Ti281     1.0  0.70000  0.50000  0.50059  1.0000
  Ti  Ti282     1.0  0.70000  0.40000  0.50059  1.0000
  Ti  Ti283     1.0  0.60000  0.50000  0.56541  1.0000
  Ti  Ti284     1.0  0.60000  0.40000  0.56541  1.0000
  O   O841      1.0  0.69627  0.55000  0.51054  1.0000
  O   O842      1.0  0.70373  0.45000  0.62027  1.0000
  O   O843      1.0  0.79627  0.55000  0.55545  1.0000
  O   O844      1.0  0.60373  0.45000  0.57536  1.0000
  O   O845      1.0  0.75792  0.59197  0.60304  1.0000
  O   O846      1.0  0.64208  0.49197  0.52777  1.0000
  O   O847      1.0  0.64208  0.40803  0.52777  1.0000
  O   O848      1.0  0.75792  0.50803  0.60304  1.0000
  O   O849      1.0  0.65792  0.59197  0.59259  1.0000
  O   O850      1.0  0.74208  0.49197  0.53822  1.0000
  O   O851      1.0  0.74208  0.40803  0.53822  1.0000
  O   O852      1.0  0.65792  0.50803  0.59259  1.0000
  Ca  Ca285     1.0  0.70848  0.55000  0.69622  1.0000
  Ca  Ca286     1.0  0.69152  0.45000  0.69387  1.0000
  Ca  Ca287     1.0  0.60848  0.55000  0.75868  1.0000
  Ca  Ca288     1.0  0.79152  0.45000  0.63140  1.0000
  Ti  Ti285     1.0  0.70000  0.50000  0.63022  1.0000
  Ti  Ti286     1.0  0.70000  0.40000  0.63022  1.0000
  Ti  Ti287     1.0  0.60000  0.50000  0.69504  1.0000
  Ti  Ti288     1.0  0.60000  0.40000  0.69504  1.0000
  O   O853      1.0  0.69627  0.55000  0.64018  1.0000
  O   O854      1.0  0.70373  0.45000  0.74991  1.0000
  O   O855      1.0  0.79627  0.55000  0.68509  1.0000
  O   O856      1.0  0.60373  0.45000  0.70500  1.0000
  O   O857      1.0  0.75792  0.59197  0.73267  1.0000
  O   O858      1.0  0.64208  0.49197  0.65741  1.0000
  O   O859      1.0  0.64208  0.40803  0.65741  1.0000
  O   O860      1.0  0.75792  0.50803  0.73267  1.0000
  O   O861      1.0  0.65792  0.59197  0.72223  1.0000
  O   O862      1.0  0.74208  0.49197  0.66786  1.0000
  O   O863      1.0  0.74208  0.40803  0.66786  1.0000
  O   O864      1.0  0.65792  0.50803  0.72223  1.0000
  Ca  Ca289     1.0  0.70848  0.75000  0.30731  1.0000
  Ca  Ca290     1.0  0.69152  0.65000  0.30496  1.0000
  Ca  Ca291     1.0  0.60848  0.75000  0.36978  1.0000
  Ca  Ca292     1.0  0.79152  0.65000  0.24249  1.0000
  Ti  Ti289     1.0  0.70000  0.70000  0.24132  1.0000
  Ti  Ti290     1.0  0.70000  0.60000  0.24132  1.0000
  Ti  Ti291     1.0  0.60000  0.70000  0.30613  1.0000
  Ti  Ti292     1.0  0.60000  0.60000  0.30613  1.0000
  O   O865      1.0  0.69627  0.75000  0.25127  1.0000
  O   O866      1.0  0.70373  0.65000  0.36100  1.0000
  O   O867      1.0  0.79627  0.75000  0.29618  1.0000
  O   O868      1.0  0.60373  0.65000  0.31609  1.0000
  O   O869      1.0  0.75792  0.79197  0.34377  1.0000
  O   O870      1.0  0.64208  0.69197  0.26850  1.0000
  O   O871      1.0  0.64208  0.60803  0.26850  1.0000
  O   O872      1.0  0.75792  0.70803  0.34377  1.0000
  O   O873      1.0  0.65792  0.79197  0.33332  1.0000
  O   O874      1.0  0.74208  0.69197  0.27895  1.0000
  O   O875      1.0  0.74208  0.60803  0.27895  1.0000
  O   O876      1.0  0.65792  0.70803  0.33332  1.0000
  Ca  Ca293     1.0  0.70848  0.75000  0.43695  1.0000
  Ca  Ca294     1.0  0.69152  0.65000  0.43459  1.0000
  Ca  Ca295     1.0  0.60848  0.75000  0.49941  1.0000
  Ca  Ca296     1.0  0.79152  0.65000  0.37213  1.0000
  Ti  Ti293     1.0  0.70000  0.70000  0.37095  1.0000
  Ti  Ti294     1.0  0.70000  0.60000  0.37095  1.0000
  Ti  Ti295     1.0  0.60000  0.70000  0.43577  1.0000
  Ti  Ti296     1.0  0.60000  0.60000  0.43577  1.0000
  O   O877      1.0  0.69627  0.75000  0.38091  1.0000
  O   O878      1.0  0.70373  0.65000  0.49063  1.0000
  O   O879      1.0  0.79627  0.75000  0.42582  1.0000
  O   O880      1.0  0.60373  0.65000  0.44572  1.0000
  O   O881      1.0  0.75792  0.79197  0.47340  1.0000
  O   O882      1.0  0.64208  0.69197  0.39814  1.0000
  O   O883      1.0  0.64208  0.60803  0.39814  1.0000
  O   O884      1.0  0.75792  0.70803  0.47340  1.0000
  O   O885      1.0  0.65792  0.79197  0.46296  1.0000
  O   O886      1.0  0.74208  0.69197  0.40858  1.0000
  O   O887      1.0  0.74208  0.60803  0.40858  1.0000
  O   O888      1.0  0.65792  0.70803  0.46296  1.0000
  Ca  Ca297     1.0  0.70848  0.75000  0.56658  1.0000
  Ca  Ca298     1.0  0.69152  0.65000  0.56423  1.0000
  Ca  Ca299     1.0  0.60848  0.75000  0.62905  1.0000
  Ca  Ca300     1.0  0.79152  0.65000  0.50176  1.0000
  Ti  Ti297     1.0  0.70000  0.70000  0.50059  1.0000
  Ti  Ti298     1.0  0.70000  0.60000  0.50059  1.0000
  Ti  Ti299     1.0  0.60000  0.70000  0.56541  1.0000
  Ti  Ti300     1.0  0.60000  0.60000  0.56541  1.0000
  O   O889      1.0  0.69627  0.75000  0.51054  1.0000
  O   O890      1.0  0.70373  0.65000  0.62027  1.0000
  O   O891      1.0  0.79627  0.75000  0.55545  1.0000
  O   O892      1.0  0.60373  0.65000  0.57536  1.0000
  O   O893      1.0  0.75792  0.79197  0.60304  1.0000
  O   O894      1.0  0.64208  0.69197  0.52777  1.0000
  O   O895      1.0  0.64208  0.60803  0.52777  1.0000
  O   O896      1.0  0.75792  0.70803  0.60304  1.0000
  O   O897      1.0  0.65792  0.79197  0.59259  1.0000
  O   O898      1.0  0.74208  0.69197  0.53822  1.0000
  O   O899      1.0  0.74208  0.60803  0.53822  1.0000
  O   O900      1.0  0.65792  0.70803  0.59259  1.0000
  Ca  Ca301     1.0  0.70848  0.75000  0.69622  1.0000
  Ca  Ca302     1.0  0.69152  0.65000  0.69387  1.0000
  Ca  Ca303     1.0  0.60848  0.75000  0.75868  1.0000
  Ca  Ca304     1.0  0.79152  0.65000  0.63140  1.0000
  Ti  Ti301     1.0  0.70000  0.70000  0.63022  1.0000
  Ti  Ti302     1.0  0.70000  0.60000  0.63022  1.0000
  Ti  Ti303     1.0  0.60000  0.70000  0.69504  1.0000
  Ti  Ti304     1.0  0.60000  0.60000  0.69504  1.0000
  O   O901      1.0  0.69627  0.75000  0.64018  1.0000
  O   O902      1.0  0.70373  0.65000  0.74991  1.0000
  O   O903      1.0  0.79627  0.75000  0.68509  1.0000
  O   O904      1.0  0.60373  0.65000  0.70500  1.0000
  O   O905      1.0  0.75792  0.79197  0.73267  1.0000
  O   O906      1.0  0.64208  0.69197  0.65741  1.0000
  O   O907      1.0  0.64208  0.60803  0.65741  1.0000
  O   O908      1.0  0.75792  0.70803  0.73267  1.0000
  O   O909      1.0  0.65792  0.79197  0.72223  1.0000
  O   O910      1.0  0.74208  0.69197  0.66786  1.0000
  O   O911      1.0  0.74208  0.60803  0.66786  1.0000
  O   O912      1.0  0.65792  0.70803  0.72223  1.0000
  Ca  Ca305     1.0  0.70848  0.95000  0.30731  1.0000
  Ca  Ca306     1.0  0.69152  0.85000  0.30496  1.0000
  Ca  Ca307     1.0  0.60848  0.95000  0.36978  1.0000
  Ca  Ca308     1.0  0.79152  0.85000  0.24249  1.0000
  Ti  Ti305     1.0  0.70000  0.90000  0.24132  1.0000
  Ti  Ti306     1.0  0.70000  0.80000  0.24132  1.0000
  Ti  Ti307     1.0  0.60000  0.90000  0.30613  1.0000
  Ti  Ti308     1.0  0.60000  0.80000  0.30613  1.0000
  O   O913      1.0  0.69627  0.95000  0.25127  1.0000
  O   O914      1.0  0.70373  0.85000  0.36100  1.0000
  O   O915      1.0  0.79627  0.95000  0.29618  1.0000
  O   O916      1.0  0.60373  0.85000  0.31609  1.0000
  O   O917      1.0  0.75792  0.99197  0.34377  1.0000
  O   O918      1.0  0.64208  0.89197  0.26850  1.0000
  O   O919      1.0  0.64208  0.80803  0.26850  1.0000
  O   O920      1.0  0.75792  0.90803  0.34377  1.0000
  O   O921      1.0  0.65792  0.99197  0.33332  1.0000
  O   O922      1.0  0.74208  0.89197  0.27895  1.0000
  O   O923      1.0  0.74208  0.80803  0.27895  1.0000
  O   O924      1.0  0.65792  0.90803  0.33332  1.0000
  Ca  Ca309     1.0  0.70848  0.95000  0.43695  1.0000
  Ca  Ca310     1.0  0.69152  0.85000  0.43459  1.0000
  Ca  Ca311     1.0  0.60848  0.95000  0.49941  1.0000
  Ca  Ca312     1.0  0.79152  0.85000  0.37213  1.0000
  Ti  Ti309     1.0  0.70000  0.90000  0.37095  1.0000
  Ti  Ti310     1.0  0.70000  0.80000  0.37095  1.0000
  Ti  Ti311     1.0  0.60000  0.90000  0.43577  1.0000
  Ti  Ti312     1.0  0.60000  0.80000  0.43577  1.0000
  O   O925      1.0  0.69627  0.95000  0.38091  1.0000
  O   O926      1.0  0.70373  0.85000  0.49063  1.0000
  O   O927      1.0  0.79627  0.95000  0.42582  1.0000
  O   O928      1.0  0.60373  0.85000  0.44572  1.0000
  O   O929      1.0  0.75792  0.99197  0.47340  1.0000
  O   O930      1.0  0.64208  0.89197  0.39814  1.0000
  O   O931      1.0  0.64208  0.80803  0.39814  1.0000
  O   O932      1.0  0.75792  0.90803  0.47340  1.0000
  O   O933      1.0  0.65792  0.99197  0.46296  1.0000
  O   O934      1.0  0.74208  0.89197  0.40858  1.0000
  O   O935      1.0  0.74208  0.80803  0.40858  1.0000
  O   O936      1.0  0.65792  0.90803  0.46296  1.0000
  Ca  Ca313     1.0  0.70848  0.95000  0.56658  1.0000
  Ca  Ca314     1.0  0.69152  0.85000  0.56423  1.0000
  Ca  Ca315     1.0  0.60848  0.95000  0.62905  1.0000
  Ca  Ca316     1.0  0.79152  0.85000  0.50176  1.0000
  Ti  Ti313     1.0  0.70000  0.90000  0.50059  1.0000
  Ti  Ti314     1.0  0.70000  0.80000  0.50059  1.0000
  Ti  Ti315     1.0  0.60000  0.90000  0.56541  1.0000
  Ti  Ti316     1.0  0.60000  0.80000  0.56541  1.0000
  O   O937      1.0  0.69627  0.95000  0.51054  1.0000
  O   O938      1.0  0.70373  0.85000  0.62027  1.0000
  O   O939      1.0  0.79627  0.95000  0.55545  1.0000
  O   O940      1.0  0.60373  0.85000  0.57536  1.0000
  O   O941      1.0  0.75792  0.99197  0.60304  1.0000
  O   O942      1.0  0.64208  0.89197  0.52777  1.0000
  O   O943      1.0  0.64208  0.80803  0.52777  1.0000
  O   O944      1.0  0.75792  0.90803  0.60304  1.0000
  O   O945      1.0  0.65792  0.99197  0.59259  1.0000
  O   O946      1.0  0.74208  0.89197  0.53822  1.0000
  O   O947      1.0  0.74208  0.80803  0.53822  1.0000
  O   O948      1.0  0.65792  0.90803  0.59259  1.0000
  Ca  Ca317     1.0  0.70848  0.95000  0.69622  1.0000
  Ca  Ca318     1.0  0.69152  0.85000  0.69387  1.0000
  Ca  Ca319     1.0  0.60848  0.95000  0.75868  1.0000
  Ca  Ca320     1.0  0.79152  0.85000  0.63140  1.0000
  Ti  Ti317     1.0  0.70000  0.90000  0.63022  1.0000
  Ti  Ti318     1.0  0.70000  0.80000  0.63022  1.0000
  Ti  Ti319     1.0  0.60000  0.90000  0.69504  1.0000
  Ti  Ti320     1.0  0.60000  0.80000  0.69504  1.0000
  O   O949      1.0  0.69627  0.95000  0.64018  1.0000
  O   O950      1.0  0.70373  0.85000  0.74991  1.0000
  O   O951      1.0  0.79627  0.95000  0.68509  1.0000
  O   O952      1.0  0.60373  0.85000  0.70500  1.0000
  O   O953      1.0  0.75792  0.99197  0.73267  1.0000
  O   O954      1.0  0.64208  0.89197  0.65741  1.0000
  O   O955      1.0  0.64208  0.80803  0.65741  1.0000
  O   O956      1.0  0.75792  0.90803  0.73267  1.0000
  O   O957      1.0  0.65792  0.99197  0.72223  1.0000
  O   O958      1.0  0.74208  0.89197  0.66786  1.0000
  O   O959      1.0  0.74208  0.80803  0.66786  1.0000
  O   O960      1.0  0.65792  0.90803  0.72223  1.0000
  Ca  Ca321     1.0  0.90848  0.15000  0.30731  1.0000
  Ca  Ca322     1.0  0.89152  0.05000  0.30496  1.0000
  Ca  Ca323     1.0  0.80848  0.15000  0.36978  1.0000
  Ca  Ca324     1.0  0.99152  0.05000  0.24249  1.0000
  Ti  Ti321     1.0  0.90000  0.10000  0.24132  1.0000
  Ti  Ti322     1.0  0.90000  0.00000  0.24132  1.0000
  Ti  Ti323     1.0  0.80000  0.10000  0.30613  1.0000
  Ti  Ti324     1.0  0.80000  0.00000  0.30613  1.0000
  O   O961      1.0  0.89627  0.15000  0.25127  1.0000
  O   O962      1.0  0.90373  0.05000  0.36100  1.0000
  O   O963      1.0  0.99627  0.15000  0.29618  1.0000
  O   O964      1.0  0.80373  0.05000  0.31609  1.0000
  O   O965      1.0  0.95792  0.19197  0.34377  1.0000
  O   O966      1.0  0.84208  0.09197  0.26850  1.0000
  O   O967      1.0  0.84208  0.00803  0.26850  1.0000
  O   O968      1.0  0.95792  0.10803  0.34377  1.0000
  O   O969      1.0  0.85792  0.19197  0.33332  1.0000
  O   O970      1.0  0.94208  0.09197  0.27895  1.0000
  O   O971      1.0  0.94208  0.00803  0.27895  1.0000
  O   O972      1.0  0.85792  0.10803  0.33332  1.0000
  Ca  Ca325     1.0  0.90848  0.15000  0.43695  1.0000
  Ca  Ca326     1.0  0.89152  0.05000  0.43459  1.0000
  Ca  Ca327     1.0  0.80848  0.15000  0.49941  1.0000
  Ca  Ca328     1.0  0.99152  0.05000  0.37213  1.0000
  Ti  Ti325     1.0  0.90000  0.10000  0.37095  1.0000
  Ti  Ti326     1.0  0.90000  0.00000  0.37095  1.0000
  Ti  Ti327     1.0  0.80000  0.10000  0.43577  1.0000
  Ti  Ti328     1.0  0.80000  0.00000  0.43577  1.0000
  O   O973      1.0  0.89627  0.15000  0.38091  1.0000
  O   O974      1.0  0.90373  0.05000  0.49063  1.0000
  O   O975      1.0  0.99627  0.15000  0.42582  1.0000
  O   O976      1.0  0.80373  0.05000  0.44572  1.0000
  O   O977      1.0  0.95792  0.19197  0.47340  1.0000
  O   O978      1.0  0.84208  0.09197  0.39814  1.0000
  O   O979      1.0  0.84208  0.00803  0.39814  1.0000
  O   O980      1.0  0.95792  0.10803  0.47340  1.0000
  O   O981      1.0  0.85792  0.19197  0.46296  1.0000
  O   O982      1.0  0.94208  0.09197  0.40858  1.0000
  O   O983      1.0  0.94208  0.00803  0.40858  1.0000
  O   O984      1.0  0.85792  0.10803  0.46296  1.0000
  Ca  Ca329     1.0  0.90848  0.15000  0.56658  1.0000
  Ca  Ca330     1.0  0.89152  0.05000  0.56423  1.0000
  Ca  Ca331     1.0  0.80848  0.15000  0.62905  1.0000
  Ca  Ca332     1.0  0.99152  0.05000  0.50176  1.0000
  Ti  Ti329     1.0  0.90000  0.10000  0.50059  1.0000
  Ti  Ti330     1.0  0.90000  0.00000  0.50059  1.0000
  Ti  Ti331     1.0  0.80000  0.10000  0.56541  1.0000
  Ti  Ti332     1.0  0.80000  0.00000  0.56541  1.0000
  O   O985      1.0  0.89627  0.15000  0.51054  1.0000
  O   O986      1.0  0.90373  0.05000  0.62027  1.0000
  O   O987      1.0  0.99627  0.15000  0.55545  1.0000
  O   O988      1.0  0.80373  0.05000  0.57536  1.0000
  O   O989      1.0  0.95792  0.19197  0.60304  1.0000
  O   O990      1.0  0.84208  0.09197  0.52777  1.0000
  O   O991      1.0  0.84208  0.00803  0.52777  1.0000
  O   O992      1.0  0.95792  0.10803  0.60304  1.0000
  O   O993      1.0  0.85792  0.19197  0.59259  1.0000
  O   O994      1.0  0.94208  0.09197  0.53822  1.0000
  O   O995      1.0  0.94208  0.00803  0.53822  1.0000
  O   O996      1.0  0.85792  0.10803  0.59259  1.0000
  Ca  Ca333     1.0  0.90848  0.15000  0.69622  1.0000
  Ca  Ca334     1.0  0.89152  0.05000  0.69387  1.0000
  Ca  Ca335     1.0  0.80848  0.15000  0.75868  1.0000
  Ca  Ca336     1.0  0.99152  0.05000  0.63140  1.0000
  Ti  Ti333     1.0  0.90000  0.10000  0.63022  1.0000
  Ti  Ti334     1.0  0.90000  0.00000  0.63022  1.0000
  Ti  Ti335     1.0  0.80000  0.10000  0.69504  1.0000
  Ti  Ti336     1.0  0.80000  0.00000  0.69504  1.0000
  O   O997      1.0  0.89627  0.15000  0.64018  1.0000
  O   O998      1.0  0.90373  0.05000  0.74991  1.0000
  O   O999      1.0  0.99627  0.15000  0.68509  1.0000
  O   O1000     1.0  0.80373  0.05000  0.70500  1.0000
  O   O1001     1.0  0.95792  0.19197  0.73267  1.0000
  O   O1002     1.0  0.84208  0.09197  0.65741  1.0000
  O   O1003     1.0  0.84208  0.00803  0.65741  1.0000
  O   O1004     1.0  0.95792  0.10803  0.73267  1.0000
  O   O1005     1.0  0.85792  0.19197  0.72223  1.0000
  O   O1006     1.0  0.94208  0.09197  0.66786  1.0000
  O   O1007     1.0  0.94208  0.00803  0.66786  1.0000
  O   O1008     1.0  0.85792  0.10803  0.72223  1.0000
  Ca  Ca337     1.0  0.90848  0.35000  0.30731  1.0000
  Ca  Ca338     1.0  0.89152  0.25000  0.30496  1.0000
  Ca  Ca339     1.0  0.80848  0.35000  0.36978  1.0000
  Ca  Ca340     1.0  0.99152  0.25000  0.24249  1.0000
  Ti  Ti337     1.0  0.90000  0.30000  0.24132  1.0000
  Ti  Ti338     1.0  0.90000  0.20000  0.24132  1.0000
  Ti  Ti339     1.0  0.80000  0.30000  0.30613  1.0000
  Ti  Ti340     1.0  0.80000  0.20000  0.30613  1.0000
  O   O1009     1.0  0.89627  0.35000  0.25127  1.0000
  O   O1010     1.0  0.90373  0.25000  0.36100  1.0000
  O   O1011     1.0  0.99627  0.35000  0.29618  1.0000
  O   O1012     1.0  0.80373  0.25000  0.31609  1.0000
  O   O1013     1.0  0.95792  0.39197  0.34377  1.0000
  O   O1014     1.0  0.84208  0.29197  0.26850  1.0000
  O   O1015     1.0  0.84208  0.20803  0.26850  1.0000
  O   O1016     1.0  0.95792  0.30803  0.34377  1.0000
  O   O1017     1.0  0.85792  0.39197  0.33332  1.0000
  O   O1018     1.0  0.94208  0.29197  0.27895  1.0000
  O   O1019     1.0  0.94208  0.20803  0.27895  1.0000
  O   O1020     1.0  0.85792  0.30803  0.33332  1.0000
  Ca  Ca341     1.0  0.90848  0.35000  0.43695  1.0000
  Ca  Ca342     1.0  0.89152  0.25000  0.43459  1.0000
  Ca  Ca343     1.0  0.80848  0.35000  0.49941  1.0000
  Ca  Ca344     1.0  0.99152  0.25000  0.37213  1.0000
  Ti  Ti341     1.0  0.90000  0.30000  0.37095  1.0000
  Ti  Ti342     1.0  0.90000  0.20000  0.37095  1.0000
  Ti  Ti343     1.0  0.80000  0.30000  0.43577  1.0000
  Ti  Ti344     1.0  0.80000  0.20000  0.43577  1.0000
  O   O1021     1.0  0.89627  0.35000  0.38091  1.0000
  O   O1022     1.0  0.90373  0.25000  0.49063  1.0000
  O   O1023     1.0  0.99627  0.35000  0.42582  1.0000
  O   O1024     1.0  0.80373  0.25000  0.44572  1.0000
  O   O1025     1.0  0.95792  0.39197  0.47340  1.0000
  O   O1026     1.0  0.84208  0.29197  0.39814  1.0000
  O   O1027     1.0  0.84208  0.20803  0.39814  1.0000
  O   O1028     1.0  0.95792  0.30803  0.47340  1.0000
  O   O1029     1.0  0.85792  0.39197  0.46296  1.0000
  O   O1030     1.0  0.94208  0.29197  0.40858  1.0000
  O   O1031     1.0  0.94208  0.20803  0.40858  1.0000
  O   O1032     1.0  0.85792  0.30803  0.46296  1.0000
  Ca  Ca345     1.0  0.90848  0.35000  0.56658  1.0000
  Ca  Ca346     1.0  0.89152  0.25000  0.56423  1.0000
  Ca  Ca347     1.0  0.80848  0.35000  0.62905  1.0000
  Ca  Ca348     1.0  0.99152  0.25000  0.50176  1.0000
  Ti  Ti345     1.0  0.90000  0.30000  0.50059  1.0000
  Ti  Ti346     1.0  0.90000  0.20000  0.50059  1.0000
  Ti  Ti347     1.0  0.80000  0.30000  0.56541  1.0000
  Ti  Ti348     1.0  0.80000  0.20000  0.56541  1.0000
  O   O1033     1.0  0.89627  0.35000  0.51054  1.0000
  O   O1034     1.0  0.90373  0.25000  0.62027  1.0000
  O   O1035     1.0  0.99627  0.35000  0.55545  1.0000
  O   O1036     1.0  0.80373  0.25000  0.57536  1.0000
  O   O1037     1.0  0.95792  0.39197  0.60304  1.0000
  O   O1038     1.0  0.84208  0.29197  0.52777  1.0000
  O   O1039     1.0  0.84208  0.20803  0.52777  1.0000
  O   O1040     1.0  0.95792  0.30803  0.60304  1.0000
  O   O1041     1.0  0.85792  0.39197  0.59259  1.0000
  O   O1042     1.0  0.94208  0.29197  0.53822  1.0000
  O   O1043     1.0  0.94208  0.20803  0.53822  1.0000
  O   O1044     1.0  0.85792  0.30803  0.59259  1.0000
  Ca  Ca349     1.0  0.90848  0.35000  0.69622  1.0000
  Ca  Ca350     1.0  0.89152  0.25000  0.69387  1.0000
  Ca  Ca351     1.0  0.80848  0.35000  0.75868  1.0000
  Ca  Ca352     1.0  0.99152  0.25000  0.63140  1.0000
  Ti  Ti349     1.0  0.90000  0.30000  0.63022  1.0000
  Ti  Ti350     1.0  0.90000  0.20000  0.63022  1.0000
  Ti  Ti351     1.0  0.80000  0.30000  0.69504  1.0000
  Ti  Ti352     1.0  0.80000  0.20000  0.69504  1.0000
  O   O1045     1.0  0.89627  0.35000  0.64018  1.0000
  O   O1046     1.0  0.90373  0.25000  0.74991  1.0000
  O   O1047     1.0  0.99627  0.35000  0.68509  1.0000
  O   O1048     1.0  0.80373  0.25000  0.70500  1.0000
  O   O1049     1.0  0.95792  0.39197  0.73267  1.0000
  O   O1050     1.0  0.84208  0.29197  0.65741  1.0000
  O   O1051     1.0  0.84208  0.20803  0.65741  1.0000
  O   O1052     1.0  0.95792  0.30803  0.73267  1.0000
  O   O1053     1.0  0.85792  0.39197  0.72223  1.0000
  O   O1054     1.0  0.94208  0.29197  0.66786  1.0000
  O   O1055     1.0  0.94208  0.20803  0.66786  1.0000
  O   O1056     1.0  0.85792  0.30803  0.72223  1.0000
  Ca  Ca353     1.0  0.90848  0.55000  0.30731  1.0000
  Ca  Ca354     1.0  0.89152  0.45000  0.30496  1.0000
  Ca  Ca355     1.0  0.80848  0.55000  0.36978  1.0000
  Ca  Ca356     1.0  0.99152  0.45000  0.24249  1.0000
  Ti  Ti353     1.0  0.90000  0.50000  0.24132  1.0000
  Ti  Ti354     1.0  0.90000  0.40000  0.24132  1.0000
  Ti  Ti355     1.0  0.80000  0.50000  0.30613  1.0000
  Ti  Ti356     1.0  0.80000  0.40000  0.30613  1.0000
  O   O1057     1.0  0.89627  0.55000  0.25127  1.0000
  O   O1058     1.0  0.90373  0.45000  0.36100  1.0000
  O   O1059     1.0  0.99627  0.55000  0.29618  1.0000
  O   O1060     1.0  0.80373  0.45000  0.31609  1.0000
  O   O1061     1.0  0.95792  0.59197  0.34377  1.0000
  O   O1062     1.0  0.84208  0.49197  0.26850  1.0000
  O   O1063     1.0  0.84208  0.40803  0.26850  1.0000
  O   O1064     1.0  0.95792  0.50803  0.34377  1.0000
  O   O1065     1.0  0.85792  0.59197  0.33332  1.0000
  O   O1066     1.0  0.94208  0.49197  0.27895  1.0000
  O   O1067     1.0  0.94208  0.40803  0.27895  1.0000
  O   O1068     1.0  0.85792  0.50803  0.33332  1.0000
  Ca  Ca357     1.0  0.90848  0.55000  0.43695  1.0000
  Ca  Ca358     1.0  0.89152  0.45000  0.43459  1.0000
  Ca  Ca359     1.0  0.80848  0.55000  0.49941  1.0000
  Ca  Ca360     1.0  0.99152  0.45000  0.37213  1.0000
  Ti  Ti357     1.0  0.90000  0.50000  0.37095  1.0000
  Ti  Ti358     1.0  0.90000  0.40000  0.37095  1.0000
  Ti  Ti359     1.0  0.80000  0.50000  0.43577  1.0000
  Ti  Ti360     1.0  0.80000  0.40000  0.43577  1.0000
  O   O1069     1.0  0.89627  0.55000  0.38091  1.0000
  O   O1070     1.0  0.90373  0.45000  0.49063  1.0000
  O   O1071     1.0  0.99627  0.55000  0.42582  1.0000
  O   O1072     1.0  0.80373  0.45000  0.44572  1.0000
  O   O1073     1.0  0.95792  0.59197  0.47340  1.0000
  O   O1074     1.0  0.84208  0.49197  0.39814  1.0000
  O   O1075     1.0  0.84208  0.40803  0.39814  1.0000
  O   O1076     1.0  0.95792  0.50803  0.47340  1.0000
  O   O1077     1.0  0.85792  0.59197  0.46296  1.0000
  O   O1078     1.0  0.94208  0.49197  0.40858  1.0000
  O   O1079     1.0  0.94208  0.40803  0.40858  1.0000
  O   O1080     1.0  0.85792  0.50803  0.46296  1.0000
  Ca  Ca361     1.0  0.90848  0.55000  0.56658  1.0000
  Ca  Ca362     1.0  0.89152  0.45000  0.56423  1.0000
  Ca  Ca363     1.0  0.80848  0.55000  0.62905  1.0000
  Ca  Ca364     1.0  0.99152  0.45000  0.50176  1.0000
  Ti  Ti361     1.0  0.90000  0.50000  0.50059  1.0000
  Ti  Ti362     1.0  0.90000  0.40000  0.50059  1.0000
  Ti  Ti363     1.0  0.80000  0.50000  0.56541  1.0000
  Ti  Ti364     1.0  0.80000  0.40000  0.56541  1.0000
  O   O1081     1.0  0.89627  0.55000  0.51054  1.0000
  O   O1082     1.0  0.90373  0.45000  0.62027  1.0000
  O   O1083     1.0  0.99627  0.55000  0.55545  1.0000
  O   O1084     1.0  0.80373  0.45000  0.57536  1.0000
  O   O1085     1.0  0.95792  0.59197  0.60304  1.0000
  O   O1086     1.0  0.84208  0.49197  0.52777  1.0000
  O   O1087     1.0  0.84208  0.40803  0.52777  1.0000
  O   O1088     1.0  0.95792  0.50803  0.60304  1.0000
  O   O1089     1.0  0.85792  0.59197  0.59259  1.0000
  O   O1090     1.0  0.94208  0.49197  0.53822  1.0000
  O   O1091     1.0  0.94208  0.40803  0.53822  1.0000
  O   O1092     1.0  0.85792  0.50803  0.59259  1.0000
  Ca  Ca365     1.0  0.90848  0.55000  0.69622  1.0000
  Ca  Ca366     1.0  0.89152  0.45000  0.69387  1.0000
  Ca  Ca367     1.0  0.80848  0.55000  0.75868  1.0000
  Ca  Ca368     1.0  0.99152  0.45000  0.63140  1.0000
  Ti  Ti365     1.0  0.90000  0.50000  0.63022  1.0000
  Ti  Ti366     1.0  0.90000  0.40000  0.63022  1.0000
  Ti  Ti367     1.0  0.80000  0.50000  0.69504  1.0000
  Ti  Ti368     1.0  0.80000  0.40000  0.69504  1.0000
  O   O1093     1.0  0.89627  0.55000  0.64018  1.0000
  O   O1094     1.0  0.90373  0.45000  0.74991  1.0000
  O   O1095     1.0  0.99627  0.55000  0.68509  1.0000
  O   O1096     1.0  0.80373  0.45000  0.70500  1.0000
  O   O1097     1.0  0.95792  0.59197  0.73267  1.0000
  O   O1098     1.0  0.84208  0.49197  0.65741  1.0000
  O   O1099     1.0  0.84208  0.40803  0.65741  1.0000
  O   O1100     1.0  0.95792  0.50803  0.73267  1.0000
  O   O1101     1.0  0.85792  0.59197  0.72223  1.0000
  O   O1102     1.0  0.94208  0.49197  0.66786  1.0000
  O   O1103     1.0  0.94208  0.40803  0.66786  1.0000
  O   O1104     1.0  0.85792  0.50803  0.72223  1.0000
  Ca  Ca369     1.0  0.90848  0.75000  0.30731  1.0000
  Ca  Ca370     1.0  0.89152  0.65000  0.30496  1.0000
  Ca  Ca371     1.0  0.80848  0.75000  0.36978  1.0000
  Ca  Ca372     1.0  0.99152  0.65000  0.24249  1.0000
  Ti  Ti369     1.0  0.90000  0.70000  0.24132  1.0000
  Ti  Ti370     1.0  0.90000  0.60000  0.24132  1.0000
  Ti  Ti371     1.0  0.80000  0.70000  0.30613  1.0000
  Ti  Ti372     1.0  0.80000  0.60000  0.30613  1.0000
  O   O1105     1.0  0.89627  0.75000  0.25127  1.0000
  O   O1106     1.0  0.90373  0.65000  0.36100  1.0000
  O   O1107     1.0  0.99627  0.75000  0.29618  1.0000
  O   O1108     1.0  0.80373  0.65000  0.31609  1.0000
  O   O1109     1.0  0.95792  0.79197  0.34377  1.0000
  O   O1110     1.0  0.84208  0.69197  0.26850  1.0000
  O   O1111     1.0  0.84208  0.60803  0.26850  1.0000
  O   O1112     1.0  0.95792  0.70803  0.34377  1.0000
  O   O1113     1.0  0.85792  0.79197  0.33332  1.0000
  O   O1114     1.0  0.94208  0.69197  0.27895  1.0000
  O   O1115     1.0  0.94208  0.60803  0.27895  1.0000
  O   O1116     1.0  0.85792  0.70803  0.33332  1.0000
  Ca  Ca373     1.0  0.90848  0.75000  0.43695  1.0000
  Ca  Ca374     1.0  0.89152  0.65000  0.43459  1.0000
  Ca  Ca375     1.0  0.80848  0.75000  0.49941  1.0000
  Ca  Ca376     1.0  0.99152  0.65000  0.37213  1.0000
  Ti  Ti373     1.0  0.90000  0.70000  0.37095  1.0000
  Ti  Ti374     1.0  0.90000  0.60000  0.37095  1.0000
  Ti  Ti375     1.0  0.80000  0.70000  0.43577  1.0000
  Ti  Ti376     1.0  0.80000  0.60000  0.43577  1.0000
  O   O1117     1.0  0.89627  0.75000  0.38091  1.0000
  O   O1118     1.0  0.90373  0.65000  0.49063  1.0000
  O   O1119     1.0  0.99627  0.75000  0.42582  1.0000
  O   O1120     1.0  0.80373  0.65000  0.44572  1.0000
  O   O1121     1.0  0.95792  0.79197  0.47340  1.0000
  O   O1122     1.0  0.84208  0.69197  0.39814  1.0000
  O   O1123     1.0  0.84208  0.60803  0.39814  1.0000
  O   O1124     1.0  0.95792  0.70803  0.47340  1.0000
  O   O1125     1.0  0.85792  0.79197  0.46296  1.0000
  O   O1126     1.0  0.94208  0.69197  0.40858  1.0000
  O   O1127     1.0  0.94208  0.60803  0.40858  1.0000
  O   O1128     1.0  0.85792  0.70803  0.46296  1.0000
  Ca  Ca377     1.0  0.90848  0.75000  0.56658  1.0000
  Ca  Ca378     1.0  0.89152  0.65000  0.56423  1.0000
  Ca  Ca379     1.0  0.80848  0.75000  0.62905  1.0000
  Ca  Ca380     1.0  0.99152  0.65000  0.50176  1.0000
  Ti  Ti377     1.0  0.90000  0.70000  0.50059  1.0000
  Ti  Ti378     1.0  0.90000  0.60000  0.50059  1.0000
  Ti  Ti379     1.0  0.80000  0.70000  0.56541  1.0000
  Ti  Ti380     1.0  0.80000  0.60000  0.56541  1.0000
  O   O1129     1.0  0.89627  0.75000  0.51054  1.0000
  O   O1130     1.0  0.90373  0.65000  0.62027  1.0000
  O   O1131     1.0  0.99627  0.75000  0.55545  1.0000
  O   O1132     1.0  0.80373  0.65000  0.57536  1.0000
  O   O1133     1.0  0.95792  0.79197  0.60304  1.0000
  O   O1134     1.0  0.84208  0.69197  0.52777  1.0000
  O   O1135     1.0  0.84208  0.60803  0.52777  1.0000
  O   O1136     1.0  0.95792  0.70803  0.60304  1.0000
  O   O1137     1.0  0.85792  0.79197  0.59259  1.0000
  O   O1138     1.0  0.94208  0.69197  0.53822  1.0000
  O   O1139     1.0  0.94208  0.60803  0.53822  1.0000
  O   O1140     1.0  0.85792  0.70803  0.59259  1.0000
  Ca  Ca381     1.0  0.90848  0.75000  0.69622  1.0000
  Ca  Ca382     1.0  0.89152  0.65000  0.69387  1.0000
  Ca  Ca383     1.0  0.80848  0.75000  0.75868  1.0000
  Ca  Ca384     1.0  0.99152  0.65000  0.63140  1.0000
  Ti  Ti381     1.0  0.90000  0.70000  0.63022  1.0000
  Ti  Ti382     1.0  0.90000  0.60000  0.63022  1.0000
  Ti  Ti383     1.0  0.80000  0.70000  0.69504  1.0000
  Ti  Ti384     1.0  0.80000  0.60000  0.69504  1.0000
  O   O1141     1.0  0.89627  0.75000  0.64018  1.0000
  O   O1142     1.0  0.90373  0.65000  0.74991  1.0000
  O   O1143     1.0  0.99627  0.75000  0.68509  1.0000
  O   O1144     1.0  0.80373  0.65000  0.70500  1.0000
  O   O1145     1.0  0.95792  0.79197  0.73267  1.0000
  O   O1146     1.0  0.84208  0.69197  0.65741  1.0000
  O   O1147     1.0  0.84208  0.60803  0.65741  1.0000
  O   O1148     1.0  0.95792  0.70803  0.73267  1.0000
  O   O1149     1.0  0.85792  0.79197  0.72223  1.0000
  O   O1150     1.0  0.94208  0.69197  0.66786  1.0000
  O   O1151     1.0  0.94208  0.60803  0.66786  1.0000
  O   O1152     1.0  0.85792  0.70803  0.72223  1.0000
  Ca  Ca385     1.0  0.90848  0.95000  0.30731  1.0000
  Ca  Ca386     1.0  0.89152  0.85000  0.30496  1.0000
  Ca  Ca387     1.0  0.80848  0.95000  0.36978  1.0000
  Ca  Ca388     1.0  0.99152  0.85000  0.24249  1.0000
  Ti  Ti385     1.0  0.90000  0.90000  0.24132  1.0000
  Ti  Ti386     1.0  0.90000  0.80000  0.24132  1.0000
  Ti  Ti387     1.0  0.80000  0.90000  0.30613  1.0000
  Ti  Ti388     1.0  0.80000  0.80000  0.30613  1.0000
  O   O1153     1.0  0.89627  0.95000  0.25127  1.0000
  O   O1154     1.0  0.90373  0.85000  0.36100  1.0000
  O   O1155     1.0  0.99627  0.95000  0.29618  1.0000
  O   O1156     1.0  0.80373  0.85000  0.31609  1.0000
  O   O1157     1.0  0.95792  0.99197  0.34377  1.0000
  O   O1158     1.0  0.84208  0.89197  0.26850  1.0000
  O   O1159     1.0  0.84208  0.80803  0.26850  1.0000
  O   O1160     1.0  0.95792  0.90803  0.34377  1.0000
  O   O1161     1.0  0.85792  0.99197  0.33332  1.0000
  O   O1162     1.0  0.94208  0.89197  0.27895  1.0000
  O   O1163     1.0  0.94208  0.80803  0.27895  1.0000
  O   O1164     1.0  0.85792  0.90803  0.33332  1.0000
  Ca  Ca389     1.0  0.90848  0.95000  0.43695  1.0000
  Ca  Ca390     1.0  0.89152  0.85000  0.43459  1.0000
  Ca  Ca391     1.0  0.80848  0.95000  0.49941  1.0000
  Ca  Ca392     1.0  0.99152  0.85000  0.37213  1.0000
  Ti  Ti389     1.0  0.90000  0.90000  0.37095  1.0000
  Ti  Ti390     1.0  0.90000  0.80000  0.37095  1.0000
  Ti  Ti391     1.0  0.80000  0.90000  0.43577  1.0000
  Ti  Ti392     1.0  0.80000  0.80000  0.43577  1.0000
  O   O1165     1.0  0.89627  0.95000  0.38091  1.0000
  O   O1166     1.0  0.90373  0.85000  0.49063  1.0000
  O   O1167     1.0  0.99627  0.95000  0.42582  1.0000
  O   O1168     1.0  0.80373  0.85000  0.44572  1.0000
  O   O1169     1.0  0.95792  0.99197  0.47340  1.0000
  O   O1170     1.0  0.84208  0.89197  0.39814  1.0000
  O   O1171     1.0  0.84208  0.80803  0.39814  1.0000
  O   O1172     1.0  0.95792  0.90803  0.47340  1.0000
  O   O1173     1.0  0.85792  0.99197  0.46296  1.0000
  O   O1174     1.0  0.94208  0.89197  0.40858  1.0000
  O   O1175     1.0  0.94208  0.80803  0.40858  1.0000
  O   O1176     1.0  0.85792  0.90803  0.46296  1.0000
  Ca  Ca393     1.0  0.90848  0.95000  0.56658  1.0000
  Ca  Ca394     1.0  0.89152  0.85000  0.56423  1.0000
  Ca  Ca395     1.0  0.80848  0.95000  0.62905  1.0000
  Ca  Ca396     1.0  0.99152  0.85000  0.50176  1.0000
  Ti  Ti393     1.0  0.90000  0.90000  0.50059  1.0000
  Ti  Ti394     1.0  0.90000  0.80000  0.50059  1.0000
  Ti  Ti395     1.0  0.80000  0.90000  0.56541  1.0000
  Ti  Ti396     1.0  0.80000  0.80000  0.56541  1.0000
  O   O1177     1.0  0.89627  0.95000  0.51054  1.0000
  O   O1178     1.0  0.90373  0.85000  0.62027  1.0000
  O   O1179     1.0  0.99627  0.95000  0.55545  1.0000
  O   O1180     1.0  0.80373  0.85000  0.57536  1.0000
  O   O1181     1.0  0.95792  0.99197  0.60304  1.0000
  O   O1182     1.0  0.84208  0.89197  0.52777  1.0000
  O   O1183     1.0  0.84208  0.80803  0.52777  1.0000
  O   O1184     1.0  0.95792  0.90803  0.60304  1.0000
  O   O1185     1.0  0.85792  0.99197  0.59259  1.0000
  O   O1186     1.0  0.94208  0.89197  0.53822  1.0000
  O   O1187     1.0  0.94208  0.80803  0.53822  1.0000
  O   O1188     1.0  0.85792  0.90803  0.59259  1.0000
  Ca  Ca397     1.0  0.90848  0.95000  0.69622  1.0000
  Ca  Ca398     1.0  0.89152  0.85000  0.69387  1.0000
  Ca  Ca399     1.0  0.80848  0.95000  0.75868  1.0000
  Ca  Ca400     1.0  0.99152  0.85000  0.63140  1.0000
  Ti  Ti397     1.0  0.90000  0.90000  0.63022  1.0000
  Ti  Ti398     1.0  0.90000  0.80000  0.63022  1.0000
  Ti  Ti399     1.0  0.80000  0.90000  0.69504  1.0000
  Ti  Ti400     1.0  0.80000  0.80000  0.69504  1.0000
  O   O1189     1.0  0.89627  0.95000  0.64018  1.0000
  O   O1190     1.0  0.90373  0.85000  0.74991  1.0000
  O   O1191     1.0  0.99627  0.95000  0.68509  1.0000
  O   O1192     1.0  0.80373  0.85000  0.70500  1.0000
  O   O1193     1.0  0.95792  0.99197  0.73267  1.0000
  O   O1194     1.0  0.84208  0.89197  0.65741  1.0000
  O   O1195     1.0  0.84208  0.80803  0.65741  1.0000
  O   O1196     1.0  0.95792  0.90803  0.73267  1.0000
  O   O1197     1.0  0.85792  0.99197  0.72223  1.0000
  O   O1198     1.0  0.94208  0.89197  0.66786  1.0000
  O   O1199     1.0  0.94208  0.80803  0.66786  1.0000
  O   O1200     1.0  0.85792  0.90803  0.72223  1.0000
